MODEL 1
USER: ADFR SOLUTION from run 19
USER: SCORE 7.479981 LL:  -0.127 LR:  -7.353 RR:   0.000 FEB:  -4.668
USER: RMSD -1
USER: STATUS searching
USER: GENES 11
USER: genes 0 Translation |==|  0.45024 0.50460 0.49822
USER: genes 1 Rotation |==|  0.62957 0.71797 0.71738 0.87208
USER: genes 2 Torsion [O4']-C1'--N9-[C8] |==|  0.60336
USER: genes 3 Torsion [C5]-C6--N6-[H62] |==|  0.99980
USER: genes 4 Torsion [C3']-C2'--O2'-[H2'] |==|  0.76748
USER: genes 5 Torsion [O4']-C4'--C5'-[O5'] |==|  0.36774
USER: genes 6 Torsion [C4']-C5'--O5'-[PA] |==|  0.14149
USER: genes 7 Torsion [C5']-O5'--PA-[O1A] |==|  0.47398
USER: genes 8 Torsion [O5']-PA--O3A-[PB] |==|  0.90731
USER: genes 9 Torsion [PA]-O3A--PB-[O1B] |==|  0.35720
USER: genes 10 Torsion [C4']-C3'--O3'-[H3'] |==|  0.01711
ROOT
ATOM      1  C4' ADP A1388     190.659 171.986  15.911  1.00 17.30 LIG 0.18  C 
ATOM      2 O4'  ADP A1388     191.503 171.499  16.973  1.00 18.08 LIG-0.35  OA
ATOM      3  C3' ADP A1388     190.368 170.704  15.092  1.00 17.80 LIG 0.18  C 
ATOM      4  C2' ADP A1388     191.695 169.955  15.208  1.00 19.78 LIG 0.20  C 
ATOM      5  C1' ADP A1388     192.159 170.268  16.630  1.00 18.01 LIG 0.26  C 
ENDROOT
BRANCH 5 6
ATOM      6  N9  ADP A1388     191.731 169.236  17.661  1.00 18.12 LIG-0.30  N 
ATOM      7  C4  ADP A1388     190.536 169.111  18.272  1.00 16.09 LIG 0.14  A 
ATOM      8  N3  ADP A1388     189.401 169.857  18.078  1.00 17.25 LIG-0.34  N 
ATOM      9  C5  ADP A1388     190.644 168.016  19.120  1.00 15.87 LIG 0.12  A 
ATOM     10  C2  ADP A1388     188.349 169.494  18.796  1.00 14.56 LIG 0.18  A 
ATOM     11 H3   ADP A1388     189.369 170.640  17.426  1.00  0.00 LIG 0.17  HD
ATOM     12  N1  ADP A1388     188.365 168.415  19.669  1.00 13.01 LIG-0.34  N 
ATOM     13  C6  ADP A1388     189.487 167.614  19.878  1.00 14.49 LIG 0.13  A 
ATOM     14 H1   ADP A1388     187.512 168.196  20.184  1.00  0.00 LIG 0.17  HD
ATOM     15  N7  ADP A1388     191.896 167.482  19.064  1.00 19.94 LIG-0.35  N 
ATOM     16  C8  ADP A1388     192.526 168.265  18.177  1.00 20.72 LIG 0.19  A 
ATOM     17 H7   ADP A1388     192.265 166.680  19.575  1.00  0.00 LIG 0.17  HD
BRANCH 13 18
ATOM     18  N6  ADP A1388     189.429 166.638  20.709  1.00  9.66 LIG-0.38  N 
ATOM     19 H62  ADP A1388     190.194 166.008  20.950  1.00  0.00 LIG 0.16  HD
ATOM     20 H61  ADP A1388     188.562 166.453  21.214  1.00  0.00 LIG 0.16  HD
ENDBRANCH 13 18
ENDBRANCH 5 6
BRANCH 4 21
ATOM     21 O2'  ADP A1388     192.680 170.429  14.259  1.00 19.10 LIG-0.39  OA
ATOM     22 H2'  ADP A1388     192.582 170.024  13.405  1.00  0.00 LIG 0.21  HD
ENDBRANCH 4 21
BRANCH 1 23
ATOM     23  C5' ADP A1388     189.462 172.797  16.489  1.00 20.71 LIG 0.22  C 
BRANCH 23 24
ATOM     24 O5'  ADP A1388     189.150 174.103  15.896  1.00 22.21 LIG-0.29  OA
BRANCH 24 25
ATOM     25  PA  ADP A1388     188.979 174.267  14.333  1.00 18.35 LIG 0.42  P 
ATOM     26 O1A  ADP A1388     188.449 175.658  14.206  1.00 26.99 LIG-0.62  OA
ATOM     27 O2A  ADP A1388     188.120 173.209  13.735  1.00 26.80 LIG-0.62  OA
BRANCH 25 28
ATOM     28 O3A  ADP A1388     190.385 174.202  13.633  1.00 28.14 LIG-0.17  OA
BRANCH 28 29
ATOM     29  PB  ADP A1388     191.852 174.640  14.002  1.00 20.87 LIG 0.43  P 
ATOM     30 O1B  ADP A1388     192.672 173.453  13.770  1.00 32.28 LIG-0.62  OA
ATOM     31 O2B  ADP A1388     191.838 175.116  15.390  1.00 26.12 LIG-0.62  OA
ATOM     32 O3B  ADP A1388     192.208 175.738  12.995  1.00 31.89 LIG-0.62  OA
ENDBRANCH 28 29
ENDBRANCH 25 28
ENDBRANCH 24 25
ENDBRANCH 23 24
ENDBRANCH 1 23
BRANCH 3 33
ATOM     33 O3'  ADP A1388     190.008 171.090  13.771  1.00 18.78 LIG-0.39  OA
ATOM     34 H3'  ADP A1388     190.128 172.030  13.693  1.00  0.00 LIG 0.21  HD
ENDBRANCH 3 33
TORSDOF 9
ENDMDL
MODEL 2
USER: ADFR SOLUTION from run 1
USER: SCORE 6.631648 LL:   0.509 LR:  -7.141 RR:   0.000 FEB:  -4.456
USER: RMSD -1
USER: STATUS searching
USER: GENES 11
USER: genes 0 Translation |==|  0.57609 0.47396 0.53064
USER: genes 1 Rotation |==|  0.52198 0.53475 0.54672 0.99611
USER: genes 2 Torsion [O4']-C1'--N9-[C8] |==|  0.59045
USER: genes 3 Torsion [C5]-C6--N6-[H62] |==|  0.93320
USER: genes 4 Torsion [C3']-C2'--O2'-[H2'] |==|  0.90821
USER: genes 5 Torsion [O4']-C4'--C5'-[O5'] |==|  0.79017
USER: genes 6 Torsion [C4']-C5'--O5'-[PA] |==|  0.64795
USER: genes 7 Torsion [C5']-O5'--PA-[O1A] |==|  0.60781
USER: genes 8 Torsion [O5']-PA--O3A-[PB] |==|  0.81509
USER: genes 9 Torsion [PA]-O3A--PB-[O1B] |==|  0.43031
USER: genes 10 Torsion [C4']-C3'--O3'-[H3'] |==|  0.62476
ROOT
ATOM      1  C4' ADP A1388     192.735 171.480  16.446  1.00 17.30 LIG 0.18  C 
ATOM      2 O4'  ADP A1388     192.227 171.473  17.794  1.00 18.08 LIG-0.35  OA
ATOM      3  C3' ADP A1388     192.024 170.262  15.807  1.00 17.80 LIG 0.18  C 
ATOM      4  C2' ADP A1388     191.980 169.281  16.978  1.00 19.78 LIG 0.20  C 
ATOM      5  C1' ADP A1388     191.742 170.181  18.190  1.00 18.01 LIG 0.26  C 
ENDROOT
BRANCH 5 6
ATOM      6  N9  ADP A1388     190.276 170.350  18.555  1.00 18.12 LIG-0.30  N 
ATOM      7  C4  ADP A1388     189.386 171.229  18.052  1.00 16.09 LIG 0.14  A 
ATOM      8  N3  ADP A1388     189.576 172.154  17.057  1.00 17.25 LIG-0.34  N 
ATOM      9  C5  ADP A1388     188.184 170.982  18.704  1.00 15.87 LIG 0.12  A 
ATOM     10  C2  ADP A1388     188.511 172.874  16.737  1.00 14.56 LIG 0.18  A 
ATOM     11 H3   ADP A1388     190.476 172.280  16.595  1.00  0.00 LIG 0.17  HD
ATOM     12  N1  ADP A1388     187.270 172.698  17.334  1.00 13.01 LIG-0.34  N 
ATOM     13  C6  ADP A1388     187.026 171.754  18.331  1.00 14.49 LIG 0.13  A 
ATOM     14 H1   ADP A1388     186.498 173.290  17.029  1.00  0.00 LIG 0.17  HD
ATOM     15  N7  ADP A1388     188.327 169.986  19.622  1.00 19.94 LIG-0.35  N 
ATOM     16  C8  ADP A1388     189.617 169.643  19.507  1.00 20.72 LIG 0.19  A 
ATOM     17 H7   ADP A1388     187.621 169.596  20.246  1.00  0.00 LIG 0.17  HD
BRANCH 13 18
ATOM     18  N6  ADP A1388     185.855 171.657  18.844  1.00  9.66 LIG-0.38  N 
ATOM     19 H62  ADP A1388     185.472 170.837  19.317  1.00  0.00 LIG 0.16  HD
ATOM     20 H61  ADP A1388     185.221 172.455  18.818  1.00  0.00 LIG 0.16  HD
ENDBRANCH 13 18
ENDBRANCH 5 6
BRANCH 4 21
ATOM     21 O2'  ADP A1388     193.227 168.563  17.141  1.00 19.10 LIG-0.39  OA
ATOM     22 H2'  ADP A1388     193.662 168.401  16.313  1.00  0.00 LIG 0.21  HD
ENDBRANCH 4 21
BRANCH 1 23
ATOM     23  C5' ADP A1388     192.551 172.884  15.797  1.00 20.71 LIG 0.22  C 
BRANCH 23 24
ATOM     24 O5'  ADP A1388     191.210 173.279  15.352  1.00 22.21 LIG-0.29  OA
BRANCH 24 25
ATOM     25  PA  ADP A1388     190.959 173.785  13.875  1.00 18.35 LIG 0.42  P 
ATOM     26 O1A  ADP A1388     189.969 174.886  14.070  1.00 26.99 LIG-0.62  OA
ATOM     27 O2A  ADP A1388     190.518 172.697  12.962  1.00 26.80 LIG-0.62  OA
BRANCH 25 28
ATOM     28 O3A  ADP A1388     192.282 174.401  13.291  1.00 28.14 LIG-0.17  OA
BRANCH 28 29
ATOM     29  PB  ADP A1388     193.173 175.662  13.600  1.00 20.87 LIG 0.43  P 
ATOM     30 O1B  ADP A1388     194.509 175.309  13.122  1.00 32.28 LIG-0.62  OA
ATOM     31 O2B  ADP A1388     193.087 175.926  15.041  1.00 26.12 LIG-0.62  OA
ATOM     32 O3B  ADP A1388     192.584 176.789  12.747  1.00 31.89 LIG-0.62  OA
ENDBRANCH 28 29
ENDBRANCH 25 28
ENDBRANCH 24 25
ENDBRANCH 23 24
ENDBRANCH 1 23
BRANCH 3 33
ATOM     33 O3'  ADP A1388     192.792 169.832  14.689  1.00 18.78 LIG-0.39  OA
ATOM     34 H3'  ADP A1388     192.198 169.668  13.966  1.00  0.00 LIG 0.21  HD
ENDBRANCH 3 33
TORSDOF 9
ENDMDL
MODEL 3
USER: ADFR SOLUTION from run 6
USER: SCORE 6.107430 LL:   0.975 LR:  -7.082 RR:   0.000 FEB:  -4.397
USER: RMSD -1
USER: STATUS searching
USER: GENES 11
USER: genes 0 Translation |==|  0.53165 0.50367 0.45164
USER: genes 1 Rotation |==|  0.18694 0.22385 0.71415 0.32716
USER: genes 2 Torsion [O4']-C1'--N9-[C8] |==|  0.96289
USER: genes 3 Torsion [C5]-C6--N6-[H62] |==|  0.64116
USER: genes 4 Torsion [C3']-C2'--O2'-[H2'] |==|  0.25367
USER: genes 5 Torsion [O4']-C4'--C5'-[O5'] |==|  0.53590
USER: genes 6 Torsion [C4']-C5'--O5'-[PA] |==|  0.83458
USER: genes 7 Torsion [C5']-O5'--PA-[O1A] |==|  0.30445
USER: genes 8 Torsion [O5']-PA--O3A-[PB] |==|  0.46825
USER: genes 9 Torsion [PA]-O3A--PB-[O1B] |==|  0.05640
USER: genes 10 Torsion [C4']-C3'--O3'-[H3'] |==|  0.80774
ROOT
ATOM      1  C4' ADP A1388     192.002 171.971  15.142  1.00 17.30 LIG 0.18  C 
ATOM      2 O4'  ADP A1388     192.009 170.533  15.254  1.00 18.08 LIG-0.35  OA
ATOM      3  C3' ADP A1388     190.967 172.390  16.215  1.00 17.80 LIG 0.18  C 
ATOM      4  C2' ADP A1388     189.945 171.259  16.118  1.00 19.78 LIG 0.20  C 
ATOM      5  C1' ADP A1388     190.803 170.024  15.844  1.00 18.01 LIG 0.26  C 
ENDROOT
BRANCH 5 6
ATOM      6  N9  ADP A1388     191.209 169.263  17.096  1.00 18.12 LIG-0.30  N 
ATOM      7  C4  ADP A1388     190.428 168.860  18.118  1.00 16.09 LIG 0.14  A 
ATOM      8  N3  ADP A1388     189.070 168.998  18.255  1.00 17.25 LIG-0.34  N 
ATOM      9  C5  ADP A1388     191.265 168.204  19.012  1.00 15.87 LIG 0.12  A 
ATOM     10  C2  ADP A1388     188.551 168.477  19.356  1.00 14.56 LIG 0.18  A 
ATOM     11 H3   ADP A1388     188.497 169.471  17.556  1.00  0.00 LIG 0.17  HD
ATOM     12  N1  ADP A1388     189.309 167.805  20.306  1.00 13.01 LIG-0.34  N 
ATOM     13  C6  ADP A1388     190.687 167.620  20.196  1.00 14.49 LIG 0.13  A 
ATOM     14 H1   ADP A1388     188.835 167.428  21.126  1.00  0.00 LIG 0.17  HD
ATOM     15  N7  ADP A1388     192.553 168.224  18.573  1.00 19.94 LIG-0.35  N 
ATOM     16  C8  ADP A1388     192.474 168.891  17.413  1.00 20.72 LIG 0.19  A 
ATOM     17 H7   ADP A1388     193.380 167.827  19.019  1.00  0.00 LIG 0.17  HD
BRANCH 13 18
ATOM     18  N6  ADP A1388     191.323 166.996  21.119  1.00  9.66 LIG-0.38  N 
ATOM     19 H62  ADP A1388     191.089 166.077  21.494  1.00  0.00 LIG 0.16  HD
ATOM     20 H61  ADP A1388     192.158 167.413  21.530  1.00  0.00 LIG 0.16  HD
ENDBRANCH 13 18
ENDBRANCH 5 6
BRANCH 4 21
ATOM     21 O2'  ADP A1388     189.009 171.453  15.030  1.00 19.10 LIG-0.39  OA
ATOM     22 H2'  ADP A1388     189.303 171.046  14.224  1.00  0.00 LIG 0.21  HD
ENDBRANCH 4 21
BRANCH 1 23
ATOM     23  C5' ADP A1388     193.451 172.535  15.232  1.00 20.71 LIG 0.22  C 
BRANCH 23 24
ATOM     24 O5'  ADP A1388     193.628 173.979  15.428  1.00 22.21 LIG-0.29  OA
BRANCH 24 25
ATOM     25  PA  ADP A1388     193.056 175.017  14.382  1.00 18.35 LIG 0.42  P 
ATOM     26 O1A  ADP A1388     191.931 175.652  15.132  1.00 26.99 LIG-0.62  OA
ATOM     27 O2A  ADP A1388     192.673 174.383  13.092  1.00 26.80 LIG-0.62  OA
BRANCH 25 28
ATOM     28 O3A  ADP A1388     194.136 176.118  14.078  1.00 28.14 LIG-0.17  OA
BRANCH 28 29
ATOM     29  PB  ADP A1388     194.309 177.267  13.014  1.00 20.87 LIG 0.43  P 
ATOM     30 O1B  ADP A1388     192.962 177.518  12.505  1.00 32.28 LIG-0.62  OA
ATOM     31 O2B  ADP A1388     195.270 176.803  12.008  1.00 26.12 LIG-0.62  OA
ATOM     32 O3B  ADP A1388     194.810 178.477  13.810  1.00 31.89 LIG-0.62  OA
ENDBRANCH 28 29
ENDBRANCH 25 28
ENDBRANCH 24 25
ENDBRANCH 23 24
ENDBRANCH 1 23
BRANCH 3 33
ATOM     33 O3'  ADP A1388     190.472 173.680  15.876  1.00 18.78 LIG-0.39  OA
ATOM     34 H3'  ADP A1388     191.172 174.310  16.001  1.00  0.00 LIG 0.21  HD
ENDBRANCH 3 33
TORSDOF 9
ENDMDL
MODEL 4
USER: ADFR SOLUTION from run 11
USER: SCORE 5.912479 LL:   1.139 LR:  -7.051 RR:   0.000 FEB:  -4.367
USER: RMSD -1
USER: STATUS searching
USER: GENES 11
USER: genes 0 Translation |==|  0.42983 0.32804 0.72325
USER: genes 1 Rotation |==|  0.20736 0.28982 0.22637 0.71286
USER: genes 2 Torsion [O4']-C1'--N9-[C8] |==|  0.06759
USER: genes 3 Torsion [C5]-C6--N6-[H62] |==|  0.53790
USER: genes 4 Torsion [C3']-C2'--O2'-[H2'] |==|  0.80650
USER: genes 5 Torsion [O4']-C4'--C5'-[O5'] |==|  0.44039
USER: genes 6 Torsion [C4']-C5'--O5'-[PA] |==|  0.55397
USER: genes 7 Torsion [C5']-O5'--PA-[O1A] |==|  0.62372
USER: genes 8 Torsion [O5']-PA--O3A-[PB] |==|  0.83732
USER: genes 9 Torsion [PA]-O3A--PB-[O1B] |==|  0.73764
USER: genes 10 Torsion [C4']-C3'--O3'-[H3'] |==|  0.60284
ROOT
ATOM      1  C4' ADP A1388     190.322 169.073  19.624  1.00 17.30 LIG 0.18  C 
ATOM      2 O4'  ADP A1388     190.855 170.198  18.897  1.00 18.08 LIG-0.35  OA
ATOM      3  C3' ADP A1388     189.019 168.755  18.850  1.00 17.80 LIG 0.18  C 
ATOM      4  C2' ADP A1388     188.546 170.153  18.453  1.00 19.78 LIG 0.20  C 
ATOM      5  C1' ADP A1388     189.846 170.899  18.154  1.00 18.01 LIG 0.26  C 
ENDROOT
BRANCH 5 6
ATOM      6  N9  ADP A1388     190.260 170.856  16.693  1.00 18.12 LIG-0.30  N 
ATOM      7  C4  ADP A1388     189.888 171.683  15.695  1.00 16.09 LIG 0.14  A 
ATOM      8  N3  ADP A1388     189.082 172.790  15.765  1.00 17.25 LIG-0.34  N 
ATOM      9  C5  ADP A1388     190.539 171.231  14.553  1.00 15.87 LIG 0.12  A 
ATOM     10  C2  ADP A1388     188.907 173.442  14.626  1.00 14.56 LIG 0.18  A 
ATOM     11 H3   ADP A1388     188.645 173.091  16.636  1.00  0.00 LIG 0.17  HD
ATOM     12  N1  ADP A1388     189.514 173.064  13.436  1.00 13.01 LIG-0.34  N 
ATOM     13  C6  ADP A1388     190.360 171.962  13.324  1.00 14.49 LIG 0.13  A 
ATOM     14 H1   ADP A1388     189.332 173.621  12.602  1.00  0.00 LIG 0.17  HD
ATOM     15  N7  ADP A1388     191.280 170.122  14.824  1.00 19.94 LIG-0.35  N 
ATOM     16  C8  ADP A1388     191.069 169.922  16.133  1.00 20.72 LIG 0.19  A 
ATOM     17 H7   ADP A1388     191.858 169.575  14.185  1.00  0.00 LIG 0.17  HD
BRANCH 13 18
ATOM     18  N6  ADP A1388     190.878 171.668  12.187  1.00  9.66 LIG-0.38  N 
ATOM     19 H62  ADP A1388     190.918 172.277  11.369  1.00  0.00 LIG 0.16  HD
ATOM     20 H61  ADP A1388     191.321 170.760  12.051  1.00  0.00 LIG 0.16  HD
ENDBRANCH 13 18
ENDBRANCH 5 6
BRANCH 4 21
ATOM     21 O2'  ADP A1388     187.836 170.819  19.525  1.00 19.10 LIG-0.39  OA
ATOM     22 H2'  ADP A1388     186.990 170.424  19.699  1.00  0.00 LIG 0.21  HD
ENDBRANCH 4 21
BRANCH 1 23
ATOM     23  C5' ADP A1388     191.398 167.957  19.776  1.00 20.71 LIG 0.22  C 
BRANCH 23 24
ATOM     24 O5'  ADP A1388     191.238 166.972  20.852  1.00 22.21 LIG-0.29  OA
BRANCH 24 25
ATOM     25  PA  ADP A1388     192.466 166.116  21.360  1.00 18.35 LIG 0.42  P 
ATOM     26 O1A  ADP A1388     191.887 164.742  21.462  1.00 26.99 LIG-0.62  OA
ATOM     27 O2A  ADP A1388     193.055 166.645  22.619  1.00 26.80 LIG-0.62  OA
BRANCH 25 28
ATOM     28 O3A  ADP A1388     193.595 166.101  20.266  1.00 28.14 LIG-0.17  OA
BRANCH 28 29
ATOM     29  PB  ADP A1388     193.702 165.651  18.761  1.00 20.87 LIG 0.43  P 
ATOM     30 O1B  ADP A1388     194.217 164.283  18.810  1.00 32.28 LIG-0.62  OA
ATOM     31 O2B  ADP A1388     194.571 166.610  18.069  1.00 26.12 LIG-0.62  OA
ATOM     32 O3B  ADP A1388     192.263 165.658  18.236  1.00 31.89 LIG-0.62  OA
ENDBRANCH 28 29
ENDBRANCH 25 28
ENDBRANCH 24 25
ENDBRANCH 23 24
ENDBRANCH 1 23
BRANCH 3 33
ATOM     33 O3'  ADP A1388     188.144 168.047  19.721  1.00 18.78 LIG-0.39  OA
ATOM     34 H3'  ADP A1388     187.683 167.392  19.211  1.00  0.00 LIG 0.21  HD
ENDBRANCH 3 33
TORSDOF 9
ENDMDL
MODEL 5
USER: ADFR SOLUTION from run 7
USER: SCORE 6.008127 LL:   0.897 LR:  -6.905 RR:   0.000 FEB:  -4.220
USER: RMSD -1
USER: STATUS searching
USER: GENES 11
USER: genes 0 Translation |==|  0.47281 0.58166 0.33520
USER: genes 1 Rotation |==|  0.59290 0.95363 0.37172 0.63833
USER: genes 2 Torsion [O4']-C1'--N9-[C8] |==|  0.94295
USER: genes 3 Torsion [C5]-C6--N6-[H62] |==|  0.48475
USER: genes 4 Torsion [C3']-C2'--O2'-[H2'] |==|  0.40644
USER: genes 5 Torsion [O4']-C4'--C5'-[O5'] |==|  0.72139
USER: genes 6 Torsion [C4']-C5'--O5'-[PA] |==|  0.20028
USER: genes 7 Torsion [C5']-O5'--PA-[O1A] |==|  0.84195
USER: genes 8 Torsion [O5']-PA--O3A-[PB] |==|  0.13829
USER: genes 9 Torsion [PA]-O3A--PB-[O1B] |==|  0.87201
USER: genes 10 Torsion [C4']-C3'--O3'-[H3'] |==|  0.19014
ROOT
ATOM      1  C4' ADP A1388     191.031 173.257  13.221  1.00 17.30 LIG 0.18  C 
ATOM      2 O4'  ADP A1388     192.169 172.587  12.643  1.00 18.08 LIG-0.35  OA
ATOM      3  C3' ADP A1388     190.885 172.556  14.594  1.00 17.80 LIG 0.18  C 
ATOM      4  C2' ADP A1388     191.278 171.120  14.251  1.00 19.78 LIG 0.20  C 
ATOM      5  C1' ADP A1388     192.393 171.291  13.219  1.00 18.01 LIG 0.26  C 
ENDROOT
BRANCH 5 6
ATOM      6  N9  ADP A1388     193.790 171.306  13.816  1.00 18.12 LIG-0.30  N 
ATOM      7  C4  ADP A1388     194.290 170.522  14.792  1.00 16.09 LIG 0.14  A 
ATOM      8  N3  ADP A1388     193.674 169.489  15.451  1.00 17.25 LIG-0.34  N 
ATOM      9  C5  ADP A1388     195.608 170.922  14.976  1.00 15.87 LIG 0.12  A 
ATOM     10  C2  ADP A1388     194.416 168.862  16.351  1.00 14.56 LIG 0.18  A 
ATOM     11 H3   ADP A1388     192.708 169.222  15.262  1.00  0.00 LIG 0.17  HD
ATOM     12  N1  ADP A1388     195.740 169.192  16.603  1.00 13.01 LIG-0.34  N 
ATOM     13  C6  ADP A1388     196.414 170.216  15.940  1.00 14.49 LIG 0.13  A 
ATOM     14 H1   ADP A1388     196.246 168.659  17.310  1.00  0.00 LIG 0.17  HD
ATOM     15  N7  ADP A1388     195.919 171.960  14.151  1.00 19.94 LIG-0.35  N 
ATOM     16  C8  ADP A1388     194.780 172.169  13.476  1.00 20.72 LIG 0.19  A 
ATOM     17 H7   ADP A1388     196.805 172.458  14.067  1.00  0.00 LIG 0.17  HD
BRANCH 13 18
ATOM     18  N6  ADP A1388     197.637 170.471  16.234  1.00  9.66 LIG-0.38  N 
ATOM     19 H62  ADP A1388     198.184 170.024  16.971  1.00  0.00 LIG 0.16  HD
ATOM     20 H61  ADP A1388     198.156 171.163  15.693  1.00  0.00 LIG 0.16  HD
ENDBRANCH 13 18
ENDBRANCH 5 6
BRANCH 4 21
ATOM     21 O2'  ADP A1388     190.184 170.373  13.668  1.00 19.10 LIG-0.39  OA
ATOM     22 H2'  ADP A1388     190.481 169.743  13.022  1.00  0.00 LIG 0.21  HD
ENDBRANCH 4 21
BRANCH 1 23
ATOM     23  C5' ADP A1388     191.225 174.802  13.182  1.00 20.71 LIG 0.22  C 
BRANCH 23 24
ATOM     24 O5'  ADP A1388     191.662 175.484  14.406  1.00 22.21 LIG-0.29  OA
BRANCH 24 25
ATOM     25  PA  ADP A1388     193.144 175.333  14.936  1.00 18.35 LIG 0.42  P 
ATOM     26 O1A  ADP A1388     193.287 173.854  15.092  1.00 26.99 LIG-0.62  OA
ATOM     27 O2A  ADP A1388     193.396 176.123  16.171  1.00 26.80 LIG-0.62  OA
BRANCH 25 28
ATOM     28 O3A  ADP A1388     194.156 175.819  13.836  1.00 28.14 LIG-0.17  OA
BRANCH 28 29
ATOM     29  PB  ADP A1388     194.309 177.095  12.926  1.00 20.87 LIG 0.43  P 
ATOM     30 O1B  ADP A1388     192.971 177.342  12.391  1.00 32.28 LIG-0.62  OA
ATOM     31 O2B  ADP A1388     195.331 176.803  11.915  1.00 26.12 LIG-0.62  OA
ATOM     32 O3B  ADP A1388     194.715 178.222  13.882  1.00 31.89 LIG-0.62  OA
ENDBRANCH 28 29
ENDBRANCH 25 28
ENDBRANCH 24 25
ENDBRANCH 23 24
ENDBRANCH 1 23
BRANCH 3 33
ATOM     33 O3'  ADP A1388     189.544 172.723  15.039  1.00 18.78 LIG-0.39  OA
ATOM     34 H3'  ADP A1388     188.976 172.217  14.470  1.00  0.00 LIG 0.21  HD
ENDBRANCH 3 33
TORSDOF 9
ENDMDL
MODEL 6
USER: ADFR SOLUTION from run 15
USER: SCORE 5.713796 LL:   1.087 LR:  -6.801 RR:   0.000 FEB:  -4.116
USER: RMSD -1
USER: STATUS searching
USER: GENES 11
USER: genes 0 Translation |==|  0.36845 0.45935 0.61842
USER: genes 1 Rotation |==|  0.55309 0.64439 0.79900 0.87004
USER: genes 2 Torsion [O4']-C1'--N9-[C8] |==|  0.00372
USER: genes 3 Torsion [C5]-C6--N6-[H62] |==|  0.29148
USER: genes 4 Torsion [C3']-C2'--O2'-[H2'] |==|  0.04868
USER: genes 5 Torsion [O4']-C4'--C5'-[O5'] |==|  0.41151
USER: genes 6 Torsion [C4']-C5'--O5'-[PA] |==|  0.02787
USER: genes 7 Torsion [C5']-O5'--PA-[O1A] |==|  0.23777
USER: genes 8 Torsion [O5']-PA--O3A-[PB] |==|  0.60563
USER: genes 9 Torsion [PA]-O3A--PB-[O1B] |==|  0.92257
USER: genes 10 Torsion [C4']-C3'--O3'-[H3'] |==|  0.88590
ROOT
ATOM      1  C4' ADP A1388     189.309 171.239  17.894  1.00 17.30 LIG 0.18  C 
ATOM      2 O4'  ADP A1388     189.747 170.898  19.225  1.00 18.08 LIG-0.35  OA
ATOM      3  C3' ADP A1388     189.784 170.024  17.059  1.00 17.80 LIG 0.18  C 
ATOM      4  C2' ADP A1388     191.103 169.674  17.744  1.00 19.78 LIG 0.20  C 
ATOM      5  C1' ADP A1388     190.823 169.948  19.221  1.00 18.01 LIG 0.26  C 
ENDROOT
BRANCH 5 6
ATOM      6  N9  ADP A1388     190.344 168.731  19.995  1.00 18.12 LIG-0.30  N 
ATOM      7  C4  ADP A1388     191.006 167.583  20.241  1.00 16.09 LIG 0.14  A 
ATOM      8  N3  ADP A1388     192.291 167.252  19.890  1.00 17.25 LIG-0.34  N 
ATOM      9  C5  ADP A1388     190.146 166.790  20.990  1.00 15.87 LIG 0.12  A 
ATOM     10  C2  ADP A1388     192.702 166.059  20.291  1.00 14.56 LIG 0.18  A 
ATOM     11 H3   ADP A1388     192.889 167.882  19.357  1.00  0.00 LIG 0.17  HD
ATOM     12  N1  ADP A1388     191.912 165.198  21.041  1.00 13.01 LIG-0.34  N 
ATOM     13  C6  ADP A1388     190.612 165.503  21.441  1.00 14.49 LIG 0.13  A 
ATOM     14 H1   ADP A1388     192.303 164.297  21.314  1.00  0.00 LIG 0.17  HD
ATOM     15  N7  ADP A1388     188.953 167.418  21.183  1.00 19.94 LIG-0.35  N 
ATOM     16  C8  ADP A1388     189.114 168.588  20.548  1.00 20.72 LIG 0.19  A 
ATOM     17 H7   ADP A1388     188.135 167.079  21.689  1.00  0.00 LIG 0.17  HD
BRANCH 13 18
ATOM     18  N6  ADP A1388     189.938 164.652  22.126  1.00  9.66 LIG-0.38  N 
ATOM     19 H62  ADP A1388     189.524 163.790  21.772  1.00  0.00 LIG 0.16  HD
ATOM     20 H61  ADP A1388     189.797 164.803  23.124  1.00  0.00 LIG 0.16  HD
ENDBRANCH 13 18
ENDBRANCH 5 6
BRANCH 4 21
ATOM     21 O2'  ADP A1388     192.197 170.507  17.291  1.00 19.10 LIG-0.39  OA
ATOM     22 H2'  ADP A1388     191.895 171.296  16.857  1.00  0.00 LIG 0.21  HD
ENDBRANCH 4 21
BRANCH 1 23
ATOM     23  C5' ADP A1388     187.797 171.611  17.891  1.00 20.71 LIG 0.22  C 
BRANCH 23 24
ATOM     24 O5'  ADP A1388     187.323 172.608  16.924  1.00 22.21 LIG-0.29  OA
BRANCH 24 25
ATOM     25  PA  ADP A1388     188.260 173.119  15.758  1.00 18.35 LIG 0.42  P 
ATOM     26 O1A  ADP A1388     188.046 172.092  14.693  1.00 26.99 LIG-0.62  OA
ATOM     27 O2A  ADP A1388     189.673 173.293  16.189  1.00 26.80 LIG-0.62  OA
BRANCH 25 28
ATOM     28 O3A  ADP A1388     187.742 174.504  15.225  1.00 28.14 LIG-0.17  OA
BRANCH 28 29
ATOM     29  PB  ADP A1388     187.629 175.202  13.818  1.00 20.87 LIG 0.43  P 
ATOM     30 O1B  ADP A1388     188.702 174.617  13.017  1.00 32.28 LIG-0.62  OA
ATOM     31 O2B  ADP A1388     187.738 176.650  14.028  1.00 26.12 LIG-0.62  OA
ATOM     32 O3B  ADP A1388     186.263 174.777  13.269  1.00 31.89 LIG-0.62  OA
ENDBRANCH 28 29
ENDBRANCH 25 28
ENDBRANCH 24 25
ENDBRANCH 23 24
ENDBRANCH 1 23
BRANCH 3 33
ATOM     33 O3'  ADP A1388     189.899 170.435  15.701  1.00 18.78 LIG-0.39  OA
ATOM     34 H3'  ADP A1388     189.158 170.992  15.495  1.00  0.00 LIG 0.21  HD
ENDBRANCH 3 33
TORSDOF 9
ENDMDL
MODEL 7
USER: ADFR SOLUTION from run 8
USER: SCORE 5.457482 LL:   0.842 LR:  -6.299 RR:   0.000 FEB:  -3.614
USER: RMSD -1
USER: STATUS searching
USER: GENES 11
USER: genes 0 Translation |==|  0.39313 0.39476 0.55459
USER: genes 1 Rotation |==|  0.29073 0.21657 0.84896 0.43598
USER: genes 2 Torsion [O4']-C1'--N9-[C8] |==|  0.04954
USER: genes 3 Torsion [C5]-C6--N6-[H62] |==|  0.80294
USER: genes 4 Torsion [C3']-C2'--O2'-[H2'] |==|  0.99933
USER: genes 5 Torsion [O4']-C4'--C5'-[O5'] |==|  0.24985
USER: genes 6 Torsion [C4']-C5'--O5'-[PA] |==|  0.28664
USER: genes 7 Torsion [C5']-O5'--PA-[O1A] |==|  0.55953
USER: genes 8 Torsion [O5']-PA--O3A-[PB] |==|  0.33795
USER: genes 9 Torsion [PA]-O3A--PB-[O1B] |==|  0.93510
USER: genes 10 Torsion [C4']-C3'--O3'-[H3'] |==|  0.03994
ROOT
ATOM      1  C4' ADP A1388     189.717 170.173  16.841  1.00 17.30 LIG 0.18  C 
ATOM      2 O4'  ADP A1388     189.722 168.775  17.189  1.00 18.08 LIG-0.35  OA
ATOM      3  C3' ADP A1388     189.781 170.868  18.223  1.00 17.80 LIG 0.18  C 
ATOM      4  C2' ADP A1388     188.936 169.929  19.082  1.00 19.78 LIG 0.20  C 
ATOM      5  C1' ADP A1388     189.272 168.543  18.533  1.00 18.01 LIG 0.26  C 
ENDROOT
BRANCH 5 6
ATOM      6  N9  ADP A1388     190.406 167.846  19.267  1.00 18.12 LIG-0.30  N 
ATOM      7  C4  ADP A1388     190.358 167.180  20.437  1.00 16.09 LIG 0.14  A 
ATOM      8  N3  ADP A1388     189.266 166.930  21.229  1.00 17.25 LIG-0.34  N 
ATOM      9  C5  ADP A1388     191.649 166.726  20.679  1.00 15.87 LIG 0.12  A 
ATOM     10  C2  ADP A1388     189.503 166.218  22.320  1.00 14.56 LIG 0.18  A 
ATOM     11 H3   ADP A1388     188.334 167.270  20.993  1.00  0.00 LIG 0.17  HD
ATOM     12  N1  ADP A1388     190.759 165.723  22.643  1.00 13.01 LIG-0.34  N 
ATOM     13  C6  ADP A1388     191.891 165.931  21.857  1.00 14.49 LIG 0.13  A 
ATOM     14 H1   ADP A1388     190.859 165.179  23.500  1.00  0.00 LIG 0.17  HD
ATOM     15  N7  ADP A1388     192.497 167.127  19.692  1.00 19.94 LIG-0.35  N 
ATOM     16  C8  ADP A1388     191.701 167.818  18.864  1.00 20.72 LIG 0.19  A 
ATOM     17 H7   ADP A1388     193.497 166.945  19.604  1.00  0.00 LIG 0.17  HD
BRANCH 13 18
ATOM     18  N6  ADP A1388     193.022 165.450  22.226  1.00  9.66 LIG-0.38  N 
ATOM     19 H62  ADP A1388     193.526 164.687  21.774  1.00  0.00 LIG 0.16  HD
ATOM     20 H61  ADP A1388     193.507 165.852  23.028  1.00  0.00 LIG 0.16  HD
ENDBRANCH 13 18
ENDBRANCH 5 6
BRANCH 4 21
ATOM     21 O2'  ADP A1388     187.517 170.180  18.938  1.00 19.10 LIG-0.39  OA
ATOM     22 H2'  ADP A1388     187.335 170.891  18.336  1.00  0.00 LIG 0.21  HD
ENDBRANCH 4 21
BRANCH 1 23
ATOM     23  C5' ADP A1388     190.824 170.482  15.790  1.00 20.71 LIG 0.22  C 
BRANCH 23 24
ATOM     24 O5'  ADP A1388     190.486 170.379  14.366  1.00 22.21 LIG-0.29  OA
BRANCH 24 25
ATOM     25  PA  ADP A1388     190.229 171.674  13.496  1.00 18.35 LIG 0.42  P 
ATOM     26 O1A  ADP A1388     189.426 171.145  12.352  1.00 26.99 LIG-0.62  OA
ATOM     27 O2A  ADP A1388     191.486 172.369  13.113  1.00 26.80 LIG-0.62  OA
BRANCH 25 28
ATOM     28 O3A  ADP A1388     189.340 172.689  14.302  1.00 28.14 LIG-0.17  OA
BRANCH 28 29
ATOM     29  PB  ADP A1388     189.489 174.179  14.792  1.00 20.87 LIG 0.43  P 
ATOM     30 O1B  ADP A1388     190.930 174.416  14.851  1.00 32.28 LIG-0.62  OA
ATOM     31 O2B  ADP A1388     188.794 174.296  16.079  1.00 26.12 LIG-0.62  OA
ATOM     32 O3B  ADP A1388     188.855 175.030  13.687  1.00 31.89 LIG-0.62  OA
ENDBRANCH 28 29
ENDBRANCH 25 28
ENDBRANCH 24 25
ENDBRANCH 23 24
ENDBRANCH 1 23
BRANCH 3 33
ATOM     33 O3'  ADP A1388     189.265 172.187  18.084  1.00 18.78 LIG-0.39  OA
ATOM     34 H3'  ADP A1388     188.809 172.241  17.253  1.00  0.00 LIG 0.21  HD
ENDBRANCH 3 33
TORSDOF 9
ENDMDL
MODEL 8
USER: ADFR SOLUTION from run 4
USER: SCORE 5.456248 LL:   0.759 LR:  -6.215 RR:   0.000 FEB:  -3.530
USER: RMSD -1
USER: STATUS searching
USER: GENES 11
USER: genes 0 Translation |==|  0.46107 0.61663 0.32306
USER: genes 1 Rotation |==|  0.70338 0.88360 0.28195 0.61806
USER: genes 2 Torsion [O4']-C1'--N9-[C8] |==|  0.92291
USER: genes 3 Torsion [C5]-C6--N6-[H62] |==|  0.75524
USER: genes 4 Torsion [C3']-C2'--O2'-[H2'] |==|  0.16190
USER: genes 5 Torsion [O4']-C4'--C5'-[O5'] |==|  0.99235
USER: genes 6 Torsion [C4']-C5'--O5'-[PA] |==|  0.70395
USER: genes 7 Torsion [C5']-O5'--PA-[O1A] |==|  0.49351
USER: genes 8 Torsion [O5']-PA--O3A-[PB] |==|  0.94484
USER: genes 9 Torsion [PA]-O3A--PB-[O1B] |==|  0.15627
USER: genes 10 Torsion [C4']-C3'--O3'-[H3'] |==|  0.54684
ROOT
ATOM      1  C4' ADP A1388     190.838 173.834  13.020  1.00 17.30 LIG 0.18  C 
ATOM      2 O4'  ADP A1388     191.403 172.534  12.758  1.00 18.08 LIG-0.35  OA
ATOM      3  C3' ADP A1388     190.366 173.710  14.490  1.00 17.80 LIG 0.18  C 
ATOM      4  C2' ADP A1388     189.895 172.257  14.542  1.00 19.78 LIG 0.20  C 
ATOM      5  C1' ADP A1388     190.891 171.526  13.643  1.00 18.01 LIG 0.26  C 
ENDROOT
BRANCH 5 6
ATOM      6  N9  ADP A1388     192.082 170.943  14.387  1.00 18.12 LIG-0.30  N 
ATOM      7  C4  ADP A1388     192.116 170.419  15.629  1.00 16.09 LIG 0.14  A 
ATOM      8  N3  ADP A1388     191.076 170.243  16.505  1.00 17.25 LIG-0.34  N 
ATOM      9  C5  ADP A1388     193.429 170.021  15.847  1.00 15.87 LIG 0.12  A 
ATOM     10  C2  ADP A1388     191.390 169.669  17.656  1.00 14.56 LIG 0.18  A 
ATOM     11 H3   ADP A1388     190.123 170.534  16.285  1.00  0.00 LIG 0.17  HD
ATOM     12  N1  ADP A1388     192.674 169.240  17.963  1.00 13.01 LIG-0.34  N 
ATOM     13  C6  ADP A1388     193.755 169.376  17.094  1.00 14.49 LIG 0.13  A 
ATOM     14 H1   ADP A1388     192.835 168.803  18.870  1.00  0.00 LIG 0.17  HD
ATOM     15  N7  ADP A1388     194.211 170.320  14.773  1.00 19.94 LIG-0.35  N 
ATOM     16  C8  ADP A1388     193.353 170.893  13.917  1.00 20.72 LIG 0.19  A 
ATOM     17 H7   ADP A1388     195.209 170.148  14.650  1.00  0.00 LIG 0.17  HD
BRANCH 13 18
ATOM     18  N6  ADP A1388     194.917 168.964  17.451  1.00  9.66 LIG-0.38  N 
ATOM     19 H62  ADP A1388     195.315 168.045  17.255  1.00  0.00 LIG 0.16  HD
ATOM     20 H61  ADP A1388     195.541 169.588  17.962  1.00  0.00 LIG 0.16  HD
ENDBRANCH 13 18
ENDBRANCH 5 6
BRANCH 4 21
ATOM     21 O2'  ADP A1388     188.555 172.093  14.019  1.00 19.10 LIG-0.39  OA
ATOM     22 H2'  ADP A1388     188.479 172.390  13.120  1.00  0.00 LIG 0.21  HD
ENDBRANCH 4 21
BRANCH 1 23
ATOM     23  C5' ADP A1388     191.849 174.959  12.647  1.00 20.71 LIG 0.22  C 
BRANCH 23 24
ATOM     24 O5'  ADP A1388     193.182 174.571  12.170  1.00 22.21 LIG-0.29  OA
BRANCH 24 25
ATOM     25  PA  ADP A1388     194.455 174.739  13.091  1.00 18.35 LIG 0.42  P 
ATOM     26 O1A  ADP A1388     195.549 174.178  12.243  1.00 26.99 LIG-0.62  OA
ATOM     27 O2A  ADP A1388     194.294 174.090  14.420  1.00 26.80 LIG-0.62  OA
BRANCH 25 28
ATOM     28 O3A  ADP A1388     194.743 176.266  13.330  1.00 28.14 LIG-0.17  OA
BRANCH 28 29
ATOM     29  PB  ADP A1388     194.351 177.614  12.616  1.00 20.87 LIG 0.43  P 
ATOM     30 O1B  ADP A1388     192.890 177.613  12.578  1.00 32.28 LIG-0.62  OA
ATOM     31 O2B  ADP A1388     195.000 177.626  11.300  1.00 26.12 LIG-0.62  OA
ATOM     32 O3B  ADP A1388     194.858 178.722  13.545  1.00 31.89 LIG-0.62  OA
ENDBRANCH 28 29
ENDBRANCH 25 28
ENDBRANCH 24 25
ENDBRANCH 23 24
ENDBRANCH 1 23
BRANCH 3 33
ATOM     33 O3'  ADP A1388     189.351 174.681  14.716  1.00 18.78 LIG-0.39  OA
ATOM     34 H3'  ADP A1388     189.247 174.790  15.655  1.00  0.00 LIG 0.21  HD
ENDBRANCH 3 33
TORSDOF 9
ENDMDL
MODEL 9
USER: ADFR SOLUTION from run 5
USER: SCORE 5.517592 LL:   0.623 LR:  -6.140 RR:   0.000 FEB:  -3.455
USER: RMSD -1
USER: STATUS searching
USER: GENES 11
USER: genes 0 Translation |==|  0.62809 0.42301 0.46060
USER: genes 1 Rotation |==|  0.88959 0.62247 0.21290 0.47176
USER: genes 2 Torsion [O4']-C1'--N9-[C8] |==|  0.07525
USER: genes 3 Torsion [C5]-C6--N6-[H62] |==|  0.59511
USER: genes 4 Torsion [C3']-C2'--O2'-[H2'] |==|  0.76516
USER: genes 5 Torsion [O4']-C4'--C5'-[O5'] |==|  0.51836
USER: genes 6 Torsion [C4']-C5'--O5'-[PA] |==|  0.36670
USER: genes 7 Torsion [C5']-O5'--PA-[O1A] |==|  0.78304
USER: genes 8 Torsion [O5']-PA--O3A-[PB] |==|  0.85356
USER: genes 9 Torsion [PA]-O3A--PB-[O1B] |==|  0.59564
USER: genes 10 Torsion [C4']-C3'--O3'-[H3'] |==|  0.85714
ROOT
ATOM      1  C4' ADP A1388     193.593 170.640  15.290  1.00 17.30 LIG 0.18  C 
ATOM      2 O4'  ADP A1388     192.355 169.906  15.371  1.00 18.08 LIG-0.35  OA
ATOM      3  C3' ADP A1388     193.643 171.374  16.653  1.00 17.80 LIG 0.18  C 
ATOM      4  C2' ADP A1388     192.168 171.697  16.884  1.00 19.78 LIG 0.20  C 
ATOM      5  C1' ADP A1388     191.442 170.475  16.321  1.00 18.01 LIG 0.26  C 
ENDROOT
BRANCH 5 6
ATOM      6  N9  ADP A1388     191.149 169.400  17.354  1.00 18.12 LIG-0.30  N 
ATOM      7  C4  ADP A1388     190.062 169.272  18.141  1.00 16.09 LIG 0.14  A 
ATOM      8  N3  ADP A1388     188.936 170.055  18.168  1.00 17.25 LIG-0.34  N 
ATOM      9  C5  ADP A1388     190.267 168.130  18.906  1.00 15.87 LIG 0.12  A 
ATOM     10  C2  ADP A1388     188.000 169.679  19.026  1.00 14.56 LIG 0.18  A 
ATOM     11 H3   ADP A1388     188.827 170.872  17.568  1.00  0.00 LIG 0.17  HD
ATOM     12  N1  ADP A1388     188.117 168.554  19.831  1.00 13.01 LIG-0.34  N 
ATOM     13  C6  ADP A1388     189.231 167.716  19.818  1.00 14.49 LIG 0.13  A 
ATOM     14 H1   ADP A1388     187.350 168.329  20.464  1.00  0.00 LIG 0.17  HD
ATOM     15  N7  ADP A1388     191.476 167.570  18.625  1.00 19.94 LIG-0.35  N 
ATOM     16  C8  ADP A1388     191.983 168.384  17.688  1.00 20.72 LIG 0.19  A 
ATOM     17 H7   ADP A1388     191.895 166.733  19.030  1.00  0.00 LIG 0.17  HD
BRANCH 13 18
ATOM     18  N6  ADP A1388     189.274 166.699  20.599  1.00  9.66 LIG-0.38  N 
ATOM     19 H62  ADP A1388     188.483 166.111  20.864  1.00  0.00 LIG 0.16  HD
ATOM     20 H61  ADP A1388     190.164 166.402  20.998  1.00  0.00 LIG 0.16  HD
ENDBRANCH 13 18
ENDBRANCH 5 6
BRANCH 4 21
ATOM     21 O2'  ADP A1388     191.746 172.886  16.174  1.00 19.10 LIG-0.39  OA
ATOM     22 H2'  ADP A1388     191.934 173.681  16.658  1.00  0.00 LIG 0.21  HD
ENDBRANCH 4 21
BRANCH 1 23
ATOM     23  C5' ADP A1388     194.768 169.694  14.901  1.00 20.71 LIG 0.22  C 
BRANCH 23 24
ATOM     24 O5'  ADP A1388     196.134 170.232  14.914  1.00 22.21 LIG-0.29  OA
BRANCH 24 25
ATOM     25  PA  ADP A1388     197.309 169.450  15.623  1.00 18.35 LIG 0.42  P 
ATOM     26 O1A  ADP A1388     197.080 169.753  17.068  1.00 26.99 LIG-0.62  OA
ATOM     27 O2A  ADP A1388     198.650 169.833  15.105  1.00 26.80 LIG-0.62  OA
BRANCH 25 28
ATOM     28 O3A  ADP A1388     197.130 167.903  15.404  1.00 28.14 LIG-0.17  OA
BRANCH 28 29
ATOM     29  PB  ADP A1388     195.973 166.858  15.628  1.00 20.87 LIG 0.43  P 
ATOM     30 O1B  ADP A1388     196.649 165.622  16.019  1.00 32.28 LIG-0.62  OA
ATOM     31 O2B  ADP A1388     195.204 166.770  14.382  1.00 26.12 LIG-0.62  OA
ATOM     32 O3B  ADP A1388     195.155 167.411  16.800  1.00 31.89 LIG-0.62  OA
ENDBRANCH 28 29
ENDBRANCH 25 28
ENDBRANCH 24 25
ENDBRANCH 23 24
ENDBRANCH 1 23
BRANCH 3 33
ATOM     33 O3'  ADP A1388     194.494 172.506  16.518  1.00 18.78 LIG-0.39  OA
ATOM     34 H3'  ADP A1388     195.318 172.217  16.143  1.00  0.00 LIG 0.21  HD
ENDBRANCH 3 33
TORSDOF 9
ENDMDL
MODEL 10
USER: ADFR SOLUTION from run 2
USER: SCORE 5.073120 LL:   1.039 LR:  -6.113 RR:   0.000 FEB:  -3.428
USER: RMSD -1
USER: STATUS searching
USER: GENES 11
USER: genes 0 Translation |==|  0.35979 0.45509 0.68414
USER: genes 1 Rotation |==|  0.78079 0.77680 0.76731 0.34807
USER: genes 2 Torsion [O4']-C1'--N9-[C8] |==|  0.39525
USER: genes 3 Torsion [C5]-C6--N6-[H62] |==|  0.14824
USER: genes 4 Torsion [C3']-C2'--O2'-[H2'] |==|  0.29109
USER: genes 5 Torsion [O4']-C4'--C5'-[O5'] |==|  0.76791
USER: genes 6 Torsion [C4']-C5'--O5'-[PA] |==|  0.68667
USER: genes 7 Torsion [C5']-O5'--PA-[O1A] |==|  0.55227
USER: genes 8 Torsion [O5']-PA--O3A-[PB] |==|  0.62300
USER: genes 9 Torsion [PA]-O3A--PB-[O1B] |==|  0.31992
USER: genes 10 Torsion [C4']-C3'--O3'-[H3'] |==|  0.60921
ROOT
ATOM      1  C4' ADP A1388     189.167 171.169  18.978  1.00 17.30 LIG 0.18  C 
ATOM      2 O4'  ADP A1388     189.830 172.099  18.098  1.00 18.08 LIG-0.35  OA
ATOM      3  C3' ADP A1388     188.084 170.547  18.062  1.00 17.80 LIG 0.18  C 
ATOM      4  C2' ADP A1388     187.686 171.742  17.197  1.00 19.78 LIG 0.20  C 
ATOM      5  C1' ADP A1388     189.004 172.487  16.989  1.00 18.01 LIG 0.26  C 
ENDROOT
BRANCH 5 6
ATOM      6  N9  ADP A1388     189.745 172.089  15.723  1.00 18.12 LIG-0.30  N 
ATOM      7  C4  ADP A1388     191.065 172.183  15.464  1.00 16.09 LIG 0.14  A 
ATOM      8  N3  ADP A1388     192.066 172.616  16.296  1.00 17.25 LIG-0.34  N 
ATOM      9  C5  ADP A1388     191.244 171.688  14.178  1.00 15.87 LIG 0.12  A 
ATOM     10  C2  ADP A1388     193.288 172.573  15.789  1.00 14.56 LIG 0.18  A 
ATOM     11 H3   ADP A1388     191.881 172.950  17.242  1.00  0.00 LIG 0.17  HD
ATOM     12  N1  ADP A1388     193.563 172.096  14.515  1.00 13.01 LIG-0.34  N 
ATOM     13  C6  ADP A1388     192.582 171.622  13.645  1.00 14.49 LIG 0.13  A 
ATOM     14 H1   ADP A1388     194.532 172.092  14.198  1.00  0.00 LIG 0.17  HD
ATOM     15  N7  ADP A1388     190.054 171.320  13.630  1.00 19.94 LIG-0.35  N 
ATOM     16  C8  ADP A1388     189.169 171.596  14.599  1.00 20.72 LIG 0.19  A 
ATOM     17 H7   ADP A1388     189.877 170.929  12.705  1.00  0.00 LIG 0.17  HD
BRANCH 13 18
ATOM     18  N6  ADP A1388     192.911 171.206  12.477  1.00  9.66 LIG-0.38  N 
ATOM     19 H62  ADP A1388     192.527 171.536  11.591  1.00  0.00 LIG 0.16  HD
ATOM     20 H61  ADP A1388     193.634 170.494  12.378  1.00  0.00 LIG 0.16  HD
ENDBRANCH 13 18
ENDBRANCH 5 6
BRANCH 4 21
ATOM     21 O2'  ADP A1388     186.735 172.610  17.860  1.00 19.10 LIG-0.39  OA
ATOM     22 H2'  ADP A1388     187.135 173.411  18.175  1.00  0.00 LIG 0.21  HD
ENDBRANCH 4 21
BRANCH 1 23
ATOM     23  C5' ADP A1388     190.201 170.230  19.666  1.00 20.71 LIG 0.22  C 
BRANCH 23 24
ATOM     24 O5'  ADP A1388     190.659 169.041  18.937  1.00 22.21 LIG-0.29  OA
BRANCH 24 25
ATOM     25  PA  ADP A1388     190.287 167.588  19.436  1.00 18.35 LIG 0.42  P 
ATOM     26 O1A  ADP A1388     191.297 166.734  18.741  1.00 26.99 LIG-0.62  OA
ATOM     27 O2A  ADP A1388     188.868 167.232  19.164  1.00 26.80 LIG-0.62  OA
BRANCH 25 28
ATOM     28 O3A  ADP A1388     190.524 167.479  20.987  1.00 28.14 LIG-0.17  OA
BRANCH 28 29
ATOM     29  PB  ADP A1388     191.176 166.425  21.958  1.00 20.87 LIG 0.43  P 
ATOM     30 O1B  ADP A1388     192.340 167.102  22.528  1.00 32.28 LIG-0.62  OA
ATOM     31 O2B  ADP A1388     191.487 165.226  21.171  1.00 26.12 LIG-0.62  OA
ATOM     32 O3B  ADP A1388     190.123 166.174  23.042  1.00 31.89 LIG-0.62  OA
ENDBRANCH 28 29
ENDBRANCH 25 28
ENDBRANCH 24 25
ENDBRANCH 23 24
ENDBRANCH 1 23
BRANCH 3 33
ATOM     33 O3'  ADP A1388     187.047 170.028  18.887  1.00 18.78 LIG-0.39  OA
ATOM     34 H3'  ADP A1388     186.753 169.205  18.514  1.00  0.00 LIG 0.21  HD
ENDBRANCH 3 33
TORSDOF 9
ENDMDL
MODEL 11
USER: ADFR SOLUTION from run 10
USER: SCORE 5.341603 LL:   0.473 LR:  -5.815 RR:   0.000 FEB:  -3.130
USER: RMSD -1
USER: STATUS searching
USER: GENES 11
USER: genes 0 Translation |==|  0.43617 0.30212 0.70158
USER: genes 1 Rotation |==|  0.30386 0.33016 0.22938 0.83083
USER: genes 2 Torsion [O4']-C1'--N9-[C8] |==|  0.50039
USER: genes 3 Torsion [C5]-C6--N6-[H62] |==|  0.00317
USER: genes 4 Torsion [C3']-C2'--O2'-[H2'] |==|  0.68908
USER: genes 5 Torsion [O4']-C4'--C5'-[O5'] |==|  0.98353
USER: genes 6 Torsion [C4']-C5'--O5'-[PA] |==|  0.54988
USER: genes 7 Torsion [C5']-O5'--PA-[O1A] |==|  0.25751
USER: genes 8 Torsion [O5']-PA--O3A-[PB] |==|  0.55541
USER: genes 9 Torsion [PA]-O3A--PB-[O1B] |==|  0.61217
USER: genes 10 Torsion [C4']-C3'--O3'-[H3'] |==|  0.28485
ROOT
ATOM      1  C4' ADP A1388     190.427 168.645  19.266  1.00 17.30 LIG 0.18  C 
ATOM      2 O4'  ADP A1388     190.488 170.085  19.226  1.00 18.08 LIG-0.35  OA
ATOM      3  C3' ADP A1388     189.179 168.334  18.403  1.00 17.80 LIG 0.18  C 
ATOM      4  C2' ADP A1388     188.258 169.500  18.759  1.00 19.78 LIG 0.20  C 
ATOM      5  C1' ADP A1388     189.218 170.679  18.916  1.00 18.01 LIG 0.26  C 
ENDROOT
BRANCH 5 6
ATOM      6  N9  ADP A1388     189.407 171.494  17.648  1.00 18.12 LIG-0.30  N 
ATOM      7  C4  ADP A1388     190.538 171.688  16.941  1.00 16.09 LIG 0.14  A 
ATOM      8  N3  ADP A1388     191.783 171.159  17.168  1.00 17.25 LIG-0.34  N 
ATOM      9  C5  ADP A1388     190.192 172.501  15.868  1.00 15.87 LIG 0.12  A 
ATOM     10  C2  ADP A1388     192.715 171.495  16.289  1.00 14.56 LIG 0.18  A 
ATOM     11 H3   ADP A1388     191.979 170.549  17.961  1.00  0.00 LIG 0.17  HD
ATOM     12  N1  ADP A1388     192.462 172.302  15.188  1.00 13.01 LIG-0.34  N 
ATOM     13  C6  ADP A1388     191.208 172.840  14.904  1.00 14.49 LIG 0.13  A 
ATOM     14 H1   ADP A1388     193.233 172.512  14.555  1.00  0.00 LIG 0.17  HD
ATOM     15  N7  ADP A1388     188.873 172.836  15.920  1.00 19.94 LIG-0.35  N 
ATOM     16  C8  ADP A1388     188.440 172.214  17.026  1.00 20.72 LIG 0.19  A 
ATOM     17 H7   ADP A1388     188.343 173.419  15.273  1.00  0.00 LIG 0.17  HD
BRANCH 13 18
ATOM     18  N6  ADP A1388     191.053 173.586  13.872  1.00  9.66 LIG-0.38  N 
ATOM     19 H62  ADP A1388     190.191 174.058  13.596  1.00  0.00 LIG 0.16  HD
ATOM     20 H61  ADP A1388     191.843 173.768  13.254  1.00  0.00 LIG 0.16  HD
ENDBRANCH 13 18
ENDBRANCH 5 6
BRANCH 4 21
ATOM     21 O2'  ADP A1388     187.547 169.281  20.002  1.00 19.10 LIG-0.39  OA
ATOM     22 H2'  ADP A1388     186.614 169.163  19.868  1.00  0.00 LIG 0.21  HD
ENDBRANCH 4 21
BRANCH 1 23
ATOM     23  C5' ADP A1388     191.797 168.026  18.859  1.00 20.71 LIG 0.22  C 
BRANCH 23 24
ATOM     24 O5'  ADP A1388     192.857 168.923  18.385  1.00 22.21 LIG-0.29  OA
BRANCH 24 25
ATOM     25  PA  ADP A1388     194.092 168.363  17.573  1.00 18.35 LIG 0.42  P 
ATOM     26 O1A  ADP A1388     193.647 168.512  16.154  1.00 26.99 LIG-0.62  OA
ATOM     27 O2A  ADP A1388     194.465 166.980  17.973  1.00 26.80 LIG-0.62  OA
BRANCH 25 28
ATOM     28 O3A  ADP A1388     195.344 169.287  17.802  1.00 28.14 LIG-0.17  OA
BRANCH 28 29
ATOM     29  PB  ADP A1388     196.704 169.551  17.053  1.00 20.87 LIG 0.43  P 
ATOM     30 O1B  ADP A1388     197.703 169.674  18.113  1.00 32.28 LIG-0.62  OA
ATOM     31 O2B  ADP A1388     196.533 170.753  16.228  1.00 26.12 LIG-0.62  OA
ATOM     32 O3B  ADP A1388     196.959 168.287  16.226  1.00 31.89 LIG-0.62  OA
ENDBRANCH 28 29
ENDBRANCH 25 28
ENDBRANCH 24 25
ENDBRANCH 23 24
ENDBRANCH 1 23
BRANCH 3 33
ATOM     33 O3'  ADP A1388     188.693 167.048  18.770  1.00 18.78 LIG-0.39  OA
ATOM     34 H3'  ADP A1388     187.932 167.165  19.327  1.00  0.00 LIG 0.21  HD
ENDBRANCH 3 33
TORSDOF 9
ENDMDL
MODEL 12
USER: ADFR SOLUTION from run 18
USER: SCORE 5.253373 LL:   0.546 LR:  -5.799 RR:   0.000 FEB:  -3.115
USER: RMSD -1
USER: STATUS searching
USER: GENES 11
USER: genes 0 Translation |==|  0.41704 0.44126 0.57270
USER: genes 1 Rotation |==|  0.78377 0.12119 0.65772 0.53318
USER: genes 2 Torsion [O4']-C1'--N9-[C8] |==|  0.01537
USER: genes 3 Torsion [C5]-C6--N6-[H62] |==|  0.80323
USER: genes 4 Torsion [C3']-C2'--O2'-[H2'] |==|  0.57817
USER: genes 5 Torsion [O4']-C4'--C5'-[O5'] |==|  0.48099
USER: genes 6 Torsion [C4']-C5'--O5'-[PA] |==|  0.74174
USER: genes 7 Torsion [C5']-O5'--PA-[O1A] |==|  0.79902
USER: genes 8 Torsion [O5']-PA--O3A-[PB] |==|  0.15289
USER: genes 9 Torsion [PA]-O3A--PB-[O1B] |==|  0.67157
USER: genes 10 Torsion [C4']-C3'--O3'-[H3'] |==|  0.95189
ROOT
ATOM      1  C4' ADP A1388     190.111 170.941  17.140  1.00 17.30 LIG 0.18  C 
ATOM      2 O4'  ADP A1388     190.470 170.829  15.748  1.00 18.08 LIG-0.35  OA
ATOM      3  C3' ADP A1388     191.256 171.809  17.717  1.00 17.80 LIG 0.18  C 
ATOM      4  C2' ADP A1388     192.456 171.315  16.911  1.00 19.78 LIG 0.20  C 
ATOM      5  C1' ADP A1388     191.871 171.051  15.524  1.00 18.01 LIG 0.26  C 
ENDROOT
BRANCH 5 6
ATOM      6  N9  ADP A1388     191.986 172.230  14.570  1.00 18.12 LIG-0.30  N 
ATOM      7  C4  ADP A1388     193.100 172.759  14.028  1.00 16.09 LIG 0.14  A 
ATOM      8  N3  ADP A1388     194.397 172.335  14.168  1.00 17.25 LIG-0.34  N 
ATOM      9  C5  ADP A1388     192.679 173.813  13.225  1.00 15.87 LIG 0.12  A 
ATOM     10  C2  ADP A1388     195.300 173.028  13.491  1.00 14.56 LIG 0.18  A 
ATOM     11 H3   ADP A1388     194.649 171.540  14.754  1.00  0.00 LIG 0.17  HD
ATOM     12  N1  ADP A1388     194.973 174.096  12.666  1.00 13.01 LIG-0.34  N 
ATOM     13  C6  ADP A1388     193.668 174.545  12.474  1.00 14.49 LIG 0.13  A 
ATOM     14 H1   ADP A1388     195.727 174.576  12.175  1.00  0.00 LIG 0.17  HD
ATOM     15  N7  ADP A1388     191.327 173.960  13.289  1.00 19.94 LIG-0.35  N 
ATOM     16  C8  ADP A1388     190.950 172.987  14.130  1.00 20.72 LIG 0.19  A 
ATOM     17 H7   ADP A1388     190.742 174.646  12.812  1.00  0.00 LIG 0.17  HD
BRANCH 13 18
ATOM     18  N6  ADP A1388     193.443 175.545  11.703  1.00  9.66 LIG-0.38  N 
ATOM     19 H62  ADP A1388     192.976 175.513  10.797  1.00  0.00 LIG 0.16  HD
ATOM     20 H61  ADP A1388     193.723 176.482  11.994  1.00  0.00 LIG 0.16  HD
ENDBRANCH 13 18
ENDBRANCH 5 6
BRANCH 4 21
ATOM     21 O2'  ADP A1388     193.013 170.091  17.446  1.00 19.10 LIG-0.39  OA
ATOM     22 H2'  ADP A1388     193.941 170.005  17.261  1.00  0.00 LIG 0.21  HD
ENDBRANCH 4 21
BRANCH 1 23
ATOM     23  C5' ADP A1388     188.642 171.435  17.290  1.00 20.71 LIG 0.22  C 
BRANCH 23 24
ATOM     24 O5'  ADP A1388     188.047 171.465  18.631  1.00 22.21 LIG-0.29  OA
BRANCH 24 25
ATOM     25  PA  ADP A1388     187.214 170.239  19.179  1.00 18.35 LIG 0.42  P 
ATOM     26 O1A  ADP A1388     185.950 170.322  18.386  1.00 26.99 LIG-0.62  OA
ATOM     27 O2A  ADP A1388     187.034 170.278  20.655  1.00 26.80 LIG-0.62  OA
BRANCH 25 28
ATOM     28 O3A  ADP A1388     187.943 168.894  18.815  1.00 28.14 LIG-0.17  OA
BRANCH 28 29
ATOM     29  PB  ADP A1388     189.379 168.290  19.046  1.00 20.87 LIG 0.43  P 
ATOM     30 O1B  ADP A1388     189.924 168.085  17.706  1.00 32.28 LIG-0.62  OA
ATOM     31 O2B  ADP A1388     189.225 167.066  19.841  1.00 26.12 LIG-0.62  OA
ATOM     32 O3B  ADP A1388     190.161 169.386  19.777  1.00 31.89 LIG-0.62  OA
ENDBRANCH 28 29
ENDBRANCH 25 28
ENDBRANCH 24 25
ENDBRANCH 23 24
ENDBRANCH 1 23
BRANCH 3 33
ATOM     33 O3'  ADP A1388     191.333 171.572  19.118  1.00 18.78 LIG-0.39  OA
ATOM     34 H3'  ADP A1388     190.519 171.167  19.396  1.00  0.00 LIG 0.21  HD
ENDBRANCH 3 33
TORSDOF 9
ENDMDL
MODEL 13
USER: ADFR SOLUTION from run 16
USER: SCORE 5.178810 LL:   0.388 LR:  -5.567 RR:   0.000 FEB:  -2.882
USER: RMSD -1
USER: STATUS searching
USER: GENES 11
USER: genes 0 Translation |==|  0.37056 0.46689 0.46595
USER: genes 1 Rotation |==|  0.44643 0.85313 0.15752 0.57168
USER: genes 2 Torsion [O4']-C1'--N9-[C8] |==|  0.49813
USER: genes 3 Torsion [C5]-C6--N6-[H62] |==|  0.03386
USER: genes 4 Torsion [C3']-C2'--O2'-[H2'] |==|  0.53735
USER: genes 5 Torsion [O4']-C4'--C5'-[O5'] |==|  0.56142
USER: genes 6 Torsion [C4']-C5'--O5'-[PA] |==|  0.27726
USER: genes 7 Torsion [C5']-O5'--PA-[O1A] |==|  0.10520
USER: genes 8 Torsion [O5']-PA--O3A-[PB] |==|  0.04663
USER: genes 9 Torsion [PA]-O3A--PB-[O1B] |==|  0.31981
USER: genes 10 Torsion [C4']-C3'--O3'-[H3'] |==|  0.86759
ROOT
ATOM      1  C4' ADP A1388     189.344 171.364  15.378  1.00 17.30 LIG 0.18  C 
ATOM      2 O4'  ADP A1388     190.421 170.428  15.171  1.00 18.08 LIG-0.35  OA
ATOM      3  C3' ADP A1388     189.858 172.215  16.565  1.00 17.80 LIG 0.18  C 
ATOM      4  C2' ADP A1388     190.604 171.172  17.395  1.00 19.78 LIG 0.20  C 
ATOM      5  C1' ADP A1388     191.236 170.263  16.342  1.00 18.01 LIG 0.26  C 
ENDROOT
BRANCH 5 6
ATOM      6  N9  ADP A1388     192.652 170.658  15.955  1.00 18.12 LIG-0.30  N 
ATOM      7  C4  ADP A1388     193.113 171.036  14.746  1.00 16.09 LIG 0.14  A 
ATOM      8  N3  ADP A1388     192.408 171.200  13.581  1.00 17.25 LIG-0.34  N 
ATOM      9  C5  ADP A1388     194.469 171.295  14.910  1.00 15.87 LIG 0.12  A 
ATOM     10  C2  ADP A1388     193.114 171.614  12.540  1.00 14.56 LIG 0.18  A 
ATOM     11 H3   ADP A1388     191.407 171.016  13.521  1.00  0.00 LIG 0.17  HD
ATOM     12  N1  ADP A1388     194.471 171.897  12.609  1.00 13.01 LIG-0.34  N 
ATOM     13  C6  ADP A1388     195.222 171.768  13.777  1.00 14.49 LIG 0.13  A 
ATOM     14 H1   ADP A1388     194.943 172.215  11.763  1.00  0.00 LIG 0.17  HD
ATOM     15  N7  ADP A1388     194.856 171.053  16.193  1.00 19.94 LIG-0.35  N 
ATOM     16  C8  ADP A1388     193.723 170.653  16.788  1.00 20.72 LIG 0.19  A 
ATOM     17 H7   ADP A1388     195.785 171.153  16.603  1.00  0.00 LIG 0.17  HD
BRANCH 13 18
ATOM     18  N6  ADP A1388     196.476 172.038  13.762  1.00  9.66 LIG-0.38  N 
ATOM     19 H62  ADP A1388     197.152 171.797  14.487  1.00  0.00 LIG 0.16  HD
ATOM     20 H61  ADP A1388     196.882 172.520  12.960  1.00  0.00 LIG 0.16  HD
ENDBRANCH 13 18
ENDBRANCH 5 6
BRANCH 4 21
ATOM     21 O2'  ADP A1388     189.715 170.398  18.237  1.00 19.10 LIG-0.39  OA
ATOM     22 H2'  ADP A1388     190.184 169.899  18.894  1.00  0.00 LIG 0.21  HD
ENDBRANCH 4 21
BRANCH 1 23
ATOM     23  C5' ADP A1388     188.973 172.077  14.045  1.00 20.71 LIG 0.22  C 
BRANCH 23 24
ATOM     24 O5'  ADP A1388     188.281 173.370  14.112  1.00 22.21 LIG-0.29  OA
BRANCH 24 25
ATOM     25  PA  ADP A1388     189.073 174.726  13.927  1.00 18.35 LIG 0.42  P 
ATOM     26 O1A  ADP A1388     190.066 174.383  12.864  1.00 26.99 LIG-0.62  OA
ATOM     27 O2A  ADP A1388     189.661 175.227  15.198  1.00 26.80 LIG-0.62  OA
BRANCH 25 28
ATOM     28 O3A  ADP A1388     188.109 175.835  13.369  1.00 28.14 LIG-0.17  OA
BRANCH 28 29
ATOM     29  PB  ADP A1388     186.549 176.025  13.261  1.00 20.87 LIG 0.43  P 
ATOM     30 O1B  ADP A1388     186.246 177.171  14.118  1.00 32.28 LIG-0.62  OA
ATOM     31 O2B  ADP A1388     185.917 174.766  13.673  1.00 26.12 LIG-0.62  OA
ATOM     32 O3B  ADP A1388     186.289 176.376  11.793  1.00 31.89 LIG-0.62  OA
ENDBRANCH 28 29
ENDBRANCH 25 28
ENDBRANCH 24 25
ENDBRANCH 23 24
ENDBRANCH 1 23
BRANCH 3 33
ATOM     33 O3'  ADP A1388     188.735 172.806  17.209  1.00 18.78 LIG-0.39  OA
ATOM     34 H3'  ADP A1388     188.178 173.191  16.542  1.00  0.00 LIG 0.21  HD
ENDBRANCH 3 33
TORSDOF 9
ENDMDL
MODEL 14
USER: ADFR SOLUTION from run 13
USER: SCORE 5.051100 LL:   0.265 LR:  -5.316 RR:   0.000 FEB:  -2.631
USER: RMSD -1
USER: STATUS searching
USER: GENES 11
USER: genes 0 Translation |==|  0.58062 0.41476 0.50267
USER: genes 1 Rotation |==|  0.59176 0.63855 0.91342 0.72687
USER: genes 2 Torsion [O4']-C1'--N9-[C8] |==|  0.50305
USER: genes 3 Torsion [C5]-C6--N6-[H62] |==|  0.26983
USER: genes 4 Torsion [C3']-C2'--O2'-[H2'] |==|  0.50910
USER: genes 5 Torsion [O4']-C4'--C5'-[O5'] |==|  0.06903
USER: genes 6 Torsion [C4']-C5'--O5'-[PA] |==|  0.20417
USER: genes 7 Torsion [C5']-O5'--PA-[O1A] |==|  0.11424
USER: genes 8 Torsion [O5']-PA--O3A-[PB] |==|  0.88321
USER: genes 9 Torsion [PA]-O3A--PB-[O1B] |==|  0.70842
USER: genes 10 Torsion [C4']-C3'--O3'-[H3'] |==|  0.77080
ROOT
ATOM      1  C4' ADP A1388     192.810 170.503  15.984  1.00 17.30 LIG 0.18  C 
ATOM      2 O4'  ADP A1388     193.715 170.203  17.065  1.00 18.08 LIG-0.35  OA
ATOM      3  C3' ADP A1388     193.625 170.088  14.734  1.00 17.80 LIG 0.18  C 
ATOM      4  C2' ADP A1388     195.043 170.482  15.144  1.00 19.78 LIG 0.20  C 
ATOM      5  C1' ADP A1388     195.085 170.162  16.638  1.00 18.01 LIG 0.26  C 
ENDROOT
BRANCH 5 6
ATOM      6  N9  ADP A1388     195.608 168.771  16.957  1.00 18.12 LIG-0.30  N 
ATOM      7  C4  ADP A1388     194.957 167.749  17.547  1.00 16.09 LIG 0.14  A 
ATOM      8  N3  ADP A1388     193.650 167.701  17.961  1.00 17.25 LIG-0.34  N 
ATOM      9  C5  ADP A1388     195.861 166.696  17.609  1.00 15.87 LIG 0.12  A 
ATOM     10  C2  ADP A1388     193.260 166.549  18.485  1.00 14.56 LIG 0.18  A 
ATOM     11 H3   ADP A1388     193.021 168.499  17.873  1.00  0.00 LIG 0.17  HD
ATOM     12  N1  ADP A1388     194.092 165.443  18.590  1.00 13.01 LIG-0.34  N 
ATOM     13  C6  ADP A1388     195.418 165.439  18.159  1.00 14.49 LIG 0.13  A 
ATOM     14 H1   ADP A1388     193.715 164.591  19.002  1.00  0.00 LIG 0.17  HD
ATOM     15  N7  ADP A1388     197.067 167.062  17.095  1.00 19.94 LIG-0.35  N 
ATOM     16  C8  ADP A1388     196.872 168.335  16.725  1.00 20.72 LIG 0.19  A 
ATOM     17 H7   ADP A1388     197.916 166.501  17.011  1.00  0.00 LIG 0.17  HD
BRANCH 13 18
ATOM     18  N6  ADP A1388     196.131 164.381  18.297  1.00  9.66 LIG-0.38  N 
ATOM     19 H62  ADP A1388     196.608 164.085  19.149  1.00  0.00 LIG 0.16  HD
ATOM     20 H61  ADP A1388     196.241 163.738  17.514  1.00  0.00 LIG 0.16  HD
ENDBRANCH 13 18
ENDBRANCH 5 6
BRANCH 4 21
ATOM     21 O2'  ADP A1388     195.304 171.892  14.939  1.00 19.10 LIG-0.39  OA
ATOM     22 H2'  ADP A1388     196.201 172.126  15.147  1.00  0.00 LIG 0.21  HD
ENDBRANCH 4 21
BRANCH 1 23
ATOM     23  C5' ADP A1388     191.421 169.843  16.231  1.00 20.71 LIG 0.22  C 
BRANCH 23 24
ATOM     24 O5'  ADP A1388     191.024 169.544  17.612  1.00 22.21 LIG-0.29  OA
BRANCH 24 25
ATOM     25  PA  ADP A1388     190.596 170.699  18.603  1.00 18.35 LIG 0.42  P 
ATOM     26 O1A  ADP A1388     189.765 171.585  17.734  1.00 26.99 LIG-0.62  OA
ATOM     27 O2A  ADP A1388     191.760 171.364  19.248  1.00 26.80 LIG-0.62  OA
BRANCH 25 28
ATOM     28 O3A  ADP A1388     189.681 170.115  19.740  1.00 28.14 LIG-0.17  OA
BRANCH 28 29
ATOM     29  PB  ADP A1388     188.492 169.085  19.814  1.00 20.87 LIG 0.43  P 
ATOM     30 O1B  ADP A1388     187.293 169.901  19.997  1.00 32.28 LIG-0.62  OA
ATOM     31 O2B  ADP A1388     188.776 168.155  20.914  1.00 26.12 LIG-0.62  OA
ATOM     32 O3B  ADP A1388     188.466 168.402  18.443  1.00 31.89 LIG-0.62  OA
ENDBRANCH 28 29
ENDBRANCH 25 28
ENDBRANCH 24 25
ENDBRANCH 23 24
ENDBRANCH 1 23
BRANCH 3 33
ATOM     33 O3'  ADP A1388     193.105 170.790  13.610  1.00 18.78 LIG-0.39  OA
ATOM     34 H3'  ADP A1388     192.343 170.320  13.293  1.00  0.00 LIG 0.21  HD
ENDBRANCH 3 33
TORSDOF 9
ENDMDL
MODEL 15
USER: ADFR SOLUTION from run 3
USER: SCORE 5.005714 LL:   0.239 LR:  -5.245 RR:   0.000 FEB:  -2.560
USER: RMSD -1
USER: STATUS searching
USER: GENES 11
USER: genes 0 Translation |==|  0.57997 0.52439 0.37590
USER: genes 1 Rotation |==|  0.50045 0.38185 0.14055 0.17314
USER: genes 2 Torsion [O4']-C1'--N9-[C8] |==|  0.45211
USER: genes 3 Torsion [C5]-C6--N6-[H62] |==|  0.42296
USER: genes 4 Torsion [C3']-C2'--O2'-[H2'] |==|  0.27197
USER: genes 5 Torsion [O4']-C4'--C5'-[O5'] |==|  0.09376
USER: genes 6 Torsion [C4']-C5'--O5'-[PA] |==|  0.15852
USER: genes 7 Torsion [C5']-O5'--PA-[O1A] |==|  0.54461
USER: genes 8 Torsion [O5']-PA--O3A-[PB] |==|  0.31178
USER: genes 9 Torsion [PA]-O3A--PB-[O1B] |==|  0.64162
USER: genes 10 Torsion [C4']-C3'--O3'-[H3'] |==|  0.75486
ROOT
ATOM      1  C4' ADP A1388     192.800 172.312  13.892  1.00 17.30 LIG 0.18  C 
ATOM      2 O4'  ADP A1388     193.078 172.103  15.291  1.00 18.08 LIG-0.35  OA
ATOM      3  C3' ADP A1388     193.786 171.339  13.200  1.00 17.80 LIG 0.18  C 
ATOM      4  C2' ADP A1388     195.002 171.425  14.121  1.00 19.78 LIG 0.20  C 
ATOM      5  C1' ADP A1388     194.388 171.559  15.514  1.00 18.01 LIG 0.26  C 
ENDROOT
BRANCH 5 6
ATOM      6  N9  ADP A1388     194.201 170.235  16.237  1.00 18.12 LIG-0.30  N 
ATOM      7  C4  ADP A1388     193.125 169.804  16.926  1.00 16.09 LIG 0.14  A 
ATOM      8  N3  ADP A1388     191.921 170.436  17.104  1.00 17.25 LIG-0.34  N 
ATOM      9  C5  ADP A1388     193.444 168.533  17.390  1.00 15.87 LIG 0.12  A 
ATOM     10  C2  ADP A1388     191.022 169.764  17.806  1.00 14.56 LIG 0.18  A 
ATOM     11 H3   ADP A1388     191.731 171.363  16.722  1.00  0.00 LIG 0.17  HD
ATOM     12  N1  ADP A1388     191.251 168.492  18.311  1.00 13.01 LIG-0.34  N 
ATOM     13  C6  ADP A1388     192.449 167.801  18.132  1.00 14.49 LIG 0.13  A 
ATOM     14 H1   ADP A1388     190.506 168.039  18.838  1.00  0.00 LIG 0.17  HD
ATOM     15  N7  ADP A1388     194.709 168.188  17.025  1.00 19.94 LIG-0.35  N 
ATOM     16  C8  ADP A1388     195.136 169.257  16.339  1.00 20.72 LIG 0.19  A 
ATOM     17 H7   ADP A1388     195.211 167.323  17.225  1.00  0.00 LIG 0.17  HD
BRANCH 13 18
ATOM     18  N6  ADP A1388     192.592 166.631  18.637  1.00  9.66 LIG-0.38  N 
ATOM     19 H62  ADP A1388     192.105 166.265  19.456  1.00  0.00 LIG 0.16  HD
ATOM     20 H61  ADP A1388     193.227 165.963  18.199  1.00  0.00 LIG 0.16  HD
ENDBRANCH 13 18
ENDBRANCH 5 6
BRANCH 4 21
ATOM     21 O2'  ADP A1388     195.827 172.581  13.839  1.00 19.10 LIG-0.39  OA
ATOM     22 H2'  ADP A1388     195.645 173.306  14.425  1.00  0.00 LIG 0.21  HD
ENDBRANCH 4 21
BRANCH 1 23
ATOM     23  C5' ADP A1388     191.275 172.168  13.608  1.00 20.71 LIG 0.22  C 
BRANCH 23 24
ATOM     24 O5'  ADP A1388     190.326 172.600  14.641  1.00 22.21 LIG-0.29  OA
BRANCH 24 25
ATOM     25  PA  ADP A1388     190.348 174.079  15.198  1.00 18.35 LIG 0.42  P 
ATOM     26 O1A  ADP A1388     189.546 173.968  16.453  1.00 26.99 LIG-0.62  OA
ATOM     27 O2A  ADP A1388     189.840 175.071  14.213  1.00 26.80 LIG-0.62  OA
BRANCH 25 28
ATOM     28 O3A  ADP A1388     191.818 174.484  15.579  1.00 28.14 LIG-0.17  OA
BRANCH 28 29
ATOM     29  PB  ADP A1388     192.887 175.502  15.030  1.00 20.87 LIG 0.43  P 
ATOM     30 O1B  ADP A1388     194.105 174.713  14.849  1.00 32.28 LIG-0.62  OA
ATOM     31 O2B  ADP A1388     193.002 176.595  16.002  1.00 26.12 LIG-0.62  OA
ATOM     32 O3B  ADP A1388     192.344 175.960  13.672  1.00 31.89 LIG-0.62  OA
ENDBRANCH 28 29
ENDBRANCH 25 28
ENDBRANCH 24 25
ENDBRANCH 23 24
ENDBRANCH 1 23
BRANCH 3 33
ATOM     33 O3'  ADP A1388     194.003 171.796  11.870  1.00 18.78 LIG-0.39  OA
ATOM     34 H3'  ADP A1388     193.338 171.412  11.312  1.00  0.00 LIG 0.21  HD
ENDBRANCH 3 33
TORSDOF 9
ENDMDL
MODEL 16
USER: ADFR SOLUTION from run 17
USER: SCORE 3.751142 LL:   1.380 LR:  -5.132 RR:   0.000 FEB:  -2.447
USER: RMSD -1
USER: STATUS searching
USER: GENES 11
USER: genes 0 Translation |==|  0.46506 0.46543 0.55131
USER: genes 1 Rotation |==|  0.72028 0.05922 0.56946 0.54857
USER: genes 2 Torsion [O4']-C1'--N9-[C8] |==|  0.11472
USER: genes 3 Torsion [C5]-C6--N6-[H62] |==|  0.40688
USER: genes 4 Torsion [C3']-C2'--O2'-[H2'] |==|  0.42157
USER: genes 5 Torsion [O4']-C4'--C5'-[O5'] |==|  0.04417
USER: genes 6 Torsion [C4']-C5'--O5'-[PA] |==|  0.80477
USER: genes 7 Torsion [C5']-O5'--PA-[O1A] |==|  0.26303
USER: genes 8 Torsion [O5']-PA--O3A-[PB] |==|  0.65592
USER: genes 9 Torsion [PA]-O3A--PB-[O1B] |==|  0.27164
USER: genes 10 Torsion [C4']-C3'--O3'-[H3'] |==|  0.24976
ROOT
ATOM      1  C4' ADP A1388     190.904 171.340  16.787  1.00 17.30 LIG 0.18  C 
ATOM      2 O4'  ADP A1388     191.064 171.553  15.370  1.00 18.08 LIG-0.35  OA
ATOM      3  C3' ADP A1388     192.342 171.537  17.325  1.00 17.80 LIG 0.18  C 
ATOM      4  C2' ADP A1388     193.180 170.941  16.195  1.00 19.78 LIG 0.20  C 
ATOM      5  C1' ADP A1388     192.416 171.341  14.934  1.00 18.01 LIG 0.26  C 
ENDROOT
BRANCH 5 6
ATOM      6  N9  ADP A1388     192.890 172.644  14.311  1.00 18.12 LIG-0.30  N 
ATOM      7  C4  ADP A1388     193.655 172.816  13.215  1.00 16.09 LIG 0.14  A 
ATOM      8  N3  ADP A1388     194.155 171.859  12.370  1.00 17.25 LIG-0.34  N 
ATOM      9  C5  ADP A1388     193.805 174.189  13.056  1.00 15.87 LIG 0.12  A 
ATOM     10  C2  ADP A1388     194.857 172.314  11.343  1.00 14.56 LIG 0.18  A 
ATOM     11 H3   ADP A1388     193.997 170.863  12.521  1.00  0.00 LIG 0.17  HD
ATOM     12  N1  ADP A1388     195.060 173.667  11.104  1.00 13.01 LIG-0.34  N 
ATOM     13  C6  ADP A1388     194.550 174.674  11.922  1.00 14.49 LIG 0.13  A 
ATOM     14 H1   ADP A1388     195.609 173.937  10.289  1.00  0.00 LIG 0.17  HD
ATOM     15  N7  ADP A1388     193.169 174.864  14.053  1.00 19.94 LIG-0.35  N 
ATOM     16  C8  ADP A1388     192.640 173.885  14.801  1.00 20.72 LIG 0.19  A 
ATOM     17 H7   ADP A1388     193.110 175.872  14.197  1.00  0.00 LIG 0.17  HD
BRANCH 13 18
ATOM     18  N6  ADP A1388     194.787 175.904  11.644  1.00  9.66 LIG-0.38  N 
ATOM     19 H62  ADP A1388     195.629 176.267  11.197  1.00  0.00 LIG 0.16  HD
ATOM     20 H61  ADP A1388     194.087 176.615  11.852  1.00  0.00 LIG 0.16  HD
ENDBRANCH 13 18
ENDBRANCH 5 6
BRANCH 4 21
ATOM     21 O2'  ADP A1388     193.267 169.498  16.275  1.00 19.10 LIG-0.39  OA
ATOM     22 H2'  ADP A1388     193.388 169.096  15.424  1.00  0.00 LIG 0.21  HD
ENDBRANCH 4 21
BRANCH 1 23
ATOM     23  C5' ADP A1388     189.759 172.233  17.351  1.00 20.71 LIG 0.22  C 
BRANCH 23 24
ATOM     24 O5'  ADP A1388     188.816 172.842  16.405  1.00 22.21 LIG-0.29  OA
BRANCH 24 25
ATOM     25  PA  ADP A1388     189.271 174.008  15.440  1.00 18.35 LIG 0.42  P 
ATOM     26 O1A  ADP A1388     189.631 173.276  14.189  1.00 26.99 LIG-0.62  OA
ATOM     27 O2A  ADP A1388     190.360 174.840  16.017  1.00 26.80 LIG-0.62  OA
BRANCH 25 28
ATOM     28 O3A  ADP A1388     188.051 174.951  15.132  1.00 28.14 LIG-0.17  OA
BRANCH 28 29
ATOM     29  PB  ADP A1388     187.319 175.463  13.835  1.00 20.87 LIG 0.43  P 
ATOM     30 O1B  ADP A1388     186.157 174.588  13.685  1.00 32.28 LIG-0.62  OA
ATOM     31 O2B  ADP A1388     188.280 175.403  12.727  1.00 26.12 LIG-0.62  OA
ATOM     32 O3B  ADP A1388     186.871 176.891  14.164  1.00 31.89 LIG-0.62  OA
ENDBRANCH 28 29
ENDBRANCH 25 28
ENDBRANCH 24 25
ENDBRANCH 23 24
ENDBRANCH 1 23
BRANCH 3 33
ATOM     33 O3'  ADP A1388     192.447 170.863  18.574  1.00 18.78 LIG-0.39  OA
ATOM     34 H3'  ADP A1388     192.731 169.971  18.407  1.00  0.00 LIG 0.21  HD
ENDBRANCH 3 33
TORSDOF 9
ENDMDL
