MODEL 1
REMARK VINA RESULT:    -6.461      0.000      0.000
REMARK INTER + INTRA:         -10.666
REMARK INTER:                  -9.293
REMARK INTRA:                  -1.373
REMARK UNBOUND:                -1.373
REMARK  9 active torsions:
REMARK  status: ('A' for Active; 'I' for Inactive)
REMARK    1  A    between atoms: PA_1  and  O5'_4 
REMARK    2  A    between atoms: PA_1  and  O3A_23 
REMARK    3  A    between atoms: PB_2  and  O3A_23 
REMARK    4  A    between atoms: C5'_3  and  O5'_4 
REMARK    5  A    between atoms: C5'_3  and  C4'_5 
REMARK    6  A    between atoms: C3'_7  and  O3'_8 
REMARK    7  A    between atoms: C2'_10  and  O2'_11 
REMARK    8  A    between atoms: C1'_13  and  N9_34 
REMARK    9  A    between atoms: C6_27  and  N6_28 
ROOT
HETATM    1  C4' ADP A1388     193.399 172.313  14.699  1.00 17.30     0.180 C 
HETATM    2  O4' ADP A1388     192.248 171.446  14.740  1.00 18.08    -0.353 OA
HETATM    3  C3' ADP A1388     192.789 173.703  15.008  1.00 17.80     0.182 C 
HETATM    4  C2' ADP A1388     191.436 173.611  14.304  1.00 19.78     0.198 C 
HETATM    5  C1' ADP A1388     191.019 172.157  14.520  1.00 18.01     0.262 C 
ENDROOT
BRANCH   5   6
HETATM    6  N9  ADP A1388     190.154 171.938  15.751  1.00 18.12    -0.297 N 
HETATM    7  C4  ADP A1388     190.263 170.975  16.687  1.00 16.09     0.142 A 
HETATM    8  N3  ADP A1388     191.208 169.985  16.783  1.00 17.25    -0.336 N 
HETATM    9  C5  ADP A1388     189.245 171.208  17.604  1.00 15.87     0.122 A 
HETATM   10  C2  ADP A1388     191.093 169.186  17.833  1.00 14.56     0.183 A 
ATOM     11  H3  ADP A1388     191.949 169.872  16.091  1.00  0.00     0.168 HD
HETATM   12  N1  ADP A1388     190.109 169.341  18.799  1.00 13.01    -0.337 N 
HETATM   13  C6  ADP A1388     189.145 170.347  18.756  1.00 14.49     0.131 A 
ATOM     14  H1  ADP A1388     190.090 168.686  19.580  1.00  0.00     0.168 HD
HETATM   15  N7  ADP A1388     188.493 172.279  17.231  1.00 19.94    -0.346 N 
HETATM   16  C8  ADP A1388     189.072 172.682  16.092  1.00 20.72     0.188 A 
ATOM     17  H7  ADP A1388     187.683 172.680  17.705  1.00  0.00     0.167 HD
BRANCH  13  18
HETATM   18  N6  ADP A1388     188.259 170.422  19.681  1.00  9.66    -0.383 N 
ATOM     19  H62 ADP A1388     187.412 170.991  19.658  1.00  0.00     0.157 HD
ATOM     20  H61 ADP A1388     188.360 169.861  20.527  1.00  0.00     0.157 HD
ENDBRANCH  13  18
ENDBRANCH   5   6
BRANCH   4  21
HETATM   21  O2' ADP A1388     191.533 173.885  12.886  1.00 19.10    -0.388 OA
ATOM     22  H2' ADP A1388     192.173 174.559  12.691  1.00  0.00     0.210 HD
ENDBRANCH   4  21
BRANCH   1  23
HETATM   23  C5' ADP A1388     194.531 171.766  15.617  1.00 20.71     0.216 C 
BRANCH  23  24
HETATM   24  O5' ADP A1388     194.296 170.517  16.350  1.00 22.21    -0.287 OA
BRANCH  24  25
HETATM   25  PA  ADP A1388     195.321 169.317  16.261  1.00 18.35     0.418 P 
HETATM   26  O1A ADP A1388     196.540 169.878  16.916  1.00 26.99    -0.624 OA
HETATM   27  O2A ADP A1388     195.521 168.834  14.868  1.00 26.80    -0.624 OA
BRANCH  25  28
HETATM   28  O3A ADP A1388     194.803 168.108  17.122  1.00 28.14    -0.173 OA
BRANCH  28  29
HETATM   29  PB  ADP A1388     195.310 166.652  17.444  1.00 20.87     0.431 P 
HETATM   30  O1B ADP A1388     196.652 166.831  17.998  1.00 32.28    -0.616 OA
HETATM   31  O2B ADP A1388     195.257 165.876  16.200  1.00 26.12    -0.616 OA
HETATM   32  O3B ADP A1388     194.357 166.125  18.522  1.00 31.89    -0.616 OA
ENDBRANCH  28  29
ENDBRANCH  25  28
ENDBRANCH  24  25
ENDBRANCH  23  24
ENDBRANCH   1  23
BRANCH   3  33
HETATM   33  O3' ADP A1388     193.668 174.699  14.497  1.00 18.78    -0.390 OA
ATOM     34  H3' ADP A1388     193.226 175.538  14.545  1.00  0.00     0.210 HD
ENDBRANCH   3  33
TORSDOF 9
ENDMDL
