MODEL 1
REMARK VINA RESULT:    -7.874      0.000      0.000
REMARK INTER + INTRA:         -12.423
REMARK INTER:                 -11.326
REMARK INTRA:                  -1.097
REMARK UNBOUND:                -1.097
REMARK  9 active torsions:
REMARK  status: ('A' for Active; 'I' for Inactive)
REMARK    1  A    between atoms: PA_1  and  O5'_4 
REMARK    2  A    between atoms: PA_1  and  O3A_23 
REMARK    3  A    between atoms: PB_2  and  O3A_23 
REMARK    4  A    between atoms: C5'_3  and  O5'_4 
REMARK    5  A    between atoms: C5'_3  and  C4'_5 
REMARK    6  A    between atoms: C3'_7  and  O3'_8 
REMARK    7  A    between atoms: C2'_10  and  O2'_11 
REMARK    8  A    between atoms: C1'_13  and  N9_34 
REMARK    9  A    between atoms: C6_27  and  N6_28 
ROOT
HETATM    1  C4' ADP A1388     192.797 172.897  14.955  1.00 17.30     0.180 C 
HETATM    2  O4' ADP A1388     192.388 172.602  16.305  1.00 18.08    -0.353 OA
HETATM    3  C3' ADP A1388     191.891 171.966  14.113  1.00 17.80     0.182 C 
HETATM    4  C2' ADP A1388     191.801 170.730  15.006  1.00 19.78     0.198 C 
HETATM    5  C1' ADP A1388     191.767 171.312  16.419  1.00 18.01     0.262 C 
ENDROOT
BRANCH   5   6
HETATM    6  N9  ADP A1388     190.365 171.541  16.959  1.00 18.12    -0.297 N 
HETATM    7  C4  ADP A1388     189.653 170.758  17.794  1.00 16.09     0.142 A 
HETATM    8  N3  ADP A1388     190.039 169.588  18.397  1.00 17.25    -0.336 N 
HETATM    9  C5  ADP A1388     188.437 171.402  17.990  1.00 15.87     0.122 A 
HETATM   10  C2  ADP A1388     189.144 169.039  19.203  1.00 14.56     0.183 A 
ATOM     11  H3  ADP A1388     190.955 169.169  18.235  1.00  0.00     0.168 HD
HETATM   12  N1  ADP A1388     187.904 169.608  19.458  1.00 13.01    -0.337 N 
HETATM   13  C6  ADP A1388     187.480 170.808  18.888  1.00 14.49     0.131 A 
ATOM     14  H1  ADP A1388     187.271 169.125  20.094  1.00  0.00     0.168 HD
HETATM   15  N7  ADP A1388     188.376 172.552  17.264  1.00 19.94    -0.346 N 
HETATM   16  C8  ADP A1388     189.563 172.588  16.641  1.00 20.72     0.188 A 
ATOM     17  H7  ADP A1388     187.611 173.225  17.208  1.00  0.00     0.167 HD
BRANCH  13  18
HETATM   18  N6  ADP A1388     186.314 171.268  19.163  1.00  9.66    -0.383 N 
ATOM     19  H62 ADP A1388     185.727 170.987  19.948  1.00  0.00     0.157 HD
ATOM     20  H61 ADP A1388     185.907 172.000  18.581  1.00  0.00     0.157 HD
ENDBRANCH  13  18
ENDBRANCH   5   6
BRANCH   4  21
HETATM   21  O2' ADP A1388     192.952 169.863  14.864  1.00 19.10    -0.388 OA
ATOM     22  H2' ADP A1388     192.920 169.120  15.454  1.00  0.00     0.210 HD
ENDBRANCH   4  21
BRANCH   1  23
HETATM   23  C5' ADP A1388     192.753 174.432  14.690  1.00 20.71     0.216 C 
BRANCH  23  24
HETATM   24  O5' ADP A1388     192.415 174.900  13.341  1.00 22.21    -0.287 OA
BRANCH  24  25
HETATM   25  PA  ADP A1388     193.397 175.843  12.538  1.00 18.35     0.418 P 
HETATM   26  O1A ADP A1388     194.267 176.404  13.616  1.00 26.99    -0.624 OA
HETATM   27  O2A ADP A1388     192.679 176.857  11.719  1.00 26.80    -0.624 OA
BRANCH  25  28
HETATM   28  O3A ADP A1388     194.290 174.985  11.571  1.00 28.14    -0.173 OA
BRANCH  28  29
HETATM   29  PB  ADP A1388     195.602 174.125  11.712  1.00 20.87     0.431 P 
HETATM   30  O1B ADP A1388     195.361 173.249  12.857  1.00 32.28    -0.616 OA
HETATM   31  O2B ADP A1388     196.728 175.052  11.875  1.00 26.12    -0.616 OA
HETATM   32  O3B ADP A1388     195.684 173.303  10.422  1.00 31.89    -0.616 OA
ENDBRANCH  28  29
ENDBRANCH  25  28
ENDBRANCH  24  25
ENDBRANCH  23  24
ENDBRANCH   1  23
BRANCH   3  33
HETATM   33  O3' ADP A1388     192.517 171.755  12.852  1.00 18.78    -0.390 OA
ATOM     34  H3' ADP A1388     192.103 172.326  12.215  1.00  0.00     0.210 HD
ENDBRANCH   3  33
TORSDOF 9
ENDMDL
