REMARK  9 active torsions:
REMARK  status: ('A' for Active; 'I' for Inactive)
REMARK    1  A    between atoms: PA_1  and  O5'_4 
REMARK    2  A    between atoms: PA_1  and  O3A_23 
REMARK    3  A    between atoms: PB_2  and  O3A_23 
REMARK    4  A    between atoms: C5'_3  and  C4'_5 
REMARK    5  A    between atoms: C5'_3  and  O5'_4 
REMARK    6  A    between atoms: C3'_7  and  O3'_8 
REMARK    7  A    between atoms: C2'_10  and  O2'_11 
REMARK    8  A    between atoms: C1'_13  and  N9_34 
REMARK    9  A    between atoms: C6_27  and  N6_28 
ROOT
HETATM    1  C4' ADP A1388     193.594 171.623  15.640  1.00 17.30     0.180 C 
HETATM    2  O4' ADP A1388     192.923 171.842  16.897  1.00 18.08    -0.353 OA
HETATM    3  C3' ADP A1388     192.751 170.494  14.997  1.00 17.80     0.182 C 
HETATM    4  C2' ADP A1388     192.369 169.659  16.218  1.00 19.78     0.198 C 
HETATM    5  C1' ADP A1388     192.152 170.704  17.312  1.00 18.01     0.262 C 
ENDROOT
BRANCH   5   6
HETATM    6  N9  ADP A1388     190.711 171.169  17.445  1.00 18.12    -0.297 N 
HETATM    7  C4  ADP A1388     189.716 170.610  18.162  1.00 16.09     0.142 A 
HETATM    8  N3  ADP A1388     189.773 169.512  18.982  1.00 17.25    -0.336 N 
HETATM    9  C5  ADP A1388     188.596 171.408  17.961  1.00 15.87     0.122 A 
HETATM   10  C2  ADP A1388     188.642 169.198  19.595  1.00 14.56     0.183 A 
ATOM     11  H3  ADP A1388     190.629 168.973  19.111  1.00  0.00     0.168 HD
HETATM   12  N1  ADP A1388     187.474 169.935  19.454  1.00 13.01    -0.337 N 
HETATM   13  C6  ADP A1388     187.377 171.071  18.652  1.00 14.49     0.131 A 
ATOM     14  H1  ADP A1388     186.645 169.630  19.963  1.00  0.00     0.168 HD
HETATM   15  N7  ADP A1388     188.877 172.431  17.108  1.00 19.94    -0.346 N 
HETATM   16  C8  ADP A1388     190.169 172.237  16.808  1.00 20.72     0.188 A 
ATOM     17  H7  ADP A1388     188.254 173.168  16.777  1.00  0.00     0.167 HD
BRANCH  13  18
HETATM   18  N6  ADP A1388     186.260 171.696  18.563  1.00  9.66    -0.383 N 
ATOM     19  H62 ADP A1388     185.397 171.457  19.052  1.00  0.00     0.157 HD
ATOM     20  H61 ADP A1388     186.189 172.527  17.976  1.00  0.00     0.157 HD
ENDBRANCH  13  18
ENDBRANCH   5   6
BRANCH   4  21
HETATM   21  O2' ADP A1388     193.423 168.749  16.615  1.00 19.10    -0.388 OA
ATOM     22  H2' ADP A1388     193.185 168.230  17.374  1.00  0.00     0.210 HD
ENDBRANCH   4  21
BRANCH   1  23
HETATM   23  C5' ADP A1388     193.768 172.965  14.869  1.00 20.71     0.216 C 
BRANCH  23  24
HETATM   24  O5' ADP A1388     192.642 173.906  14.839  1.00 22.21    -0.287 OA
BRANCH  24  25
HETATM   25  PA  ADP A1388     191.748 174.063  13.545  1.00 18.35     0.418 P 
HETATM   26  O1A ADP A1388     190.611 174.901  14.032  1.00 26.99    -0.624 OA
HETATM   27  O2A ADP A1388     191.357 172.755  12.954  1.00 26.80    -0.624 OA
BRANCH  25  28
HETATM   28  O3A ADP A1388     192.532 174.874  12.450  1.00 28.14    -0.173 OA
BRANCH  28  29
HETATM   29  PB  ADP A1388     193.788 175.824  12.432  1.00 20.87     0.431 P 
HETATM   30  O1B ADP A1388     193.884 176.352  13.792  1.00 32.28    -0.616 OA
HETATM   31  O2B ADP A1388     193.566 176.837  11.394  1.00 26.12    -0.616 OA
HETATM   32  O3B ADP A1388     194.979 174.908  12.132  1.00 31.89    -0.616 OA
ENDBRANCH  28  29
ENDBRANCH  25  28
ENDBRANCH  24  25
ENDBRANCH  23  24
ENDBRANCH   1  23
BRANCH   3  33
HETATM   33  O3' ADP A1388     193.561 169.824  14.038  1.00 18.78    -0.390 OA
ATOM     34  H3' ADP A1388     193.044 169.131  13.644  1.00  0.00     0.210 HD
ENDBRANCH   3  33
TORSDOF 9
