Run_1_Vina
  PyMOL2.5          3D                             0

 34 36  0  0  0  0  0  0  0  0999 V2000
  195.3210  169.3170   16.2610 P   0  0  0  0  0  0  0  0  0  0  0  0
  195.3100  166.6520   17.4440 P   0  0  0  0  0  0  0  0  0  0  0  0
  194.5310  171.7660   15.6170 C   0  0  0  0  0  0  0  0  0  0  0  0
  194.2960  170.5170   16.3500 O   0  0  0  0  0  0  0  0  0  0  0  0
  193.3990  172.3130   14.6990 C   0  0  0  0  0  0  0  0  0  0  0  0
  192.2480  171.4460   14.7400 O   0  0  0  0  0  0  0  0  0  0  0  0
  192.7890  173.7030   15.0080 C   0  0  0  0  0  0  0  0  0  0  0  0
  193.6680  174.6990   14.4970 O   0  0  0  0  0  0  0  0  0  0  0  0
  191.4360  173.6110   14.3040 C   0  0  0  0  0  0  0  0  0  0  0  0
  191.5330  173.8850   12.8860 O   0  0  0  0  0  0  0  0  0  0  0  0
  191.0190  172.1570   14.5200 C   0  0  0  0  0  0  0  0  0  0  0  0
  190.1090  169.3410   18.7990 N   0  0  0  0  0  0  0  0  0  0  0  0
  196.5400  169.8780   16.9160 O   0  5  0  0  0  0  0  0  0  0  0  0
  196.6520  166.8310   17.9980 O   0  0  0  0  0  0  0  0  0  0  0  0
  191.0930  169.1860   17.8330 C   0  0  0  0  0  0  0  0  0  0  0  0
  195.5210  168.8340   14.8680 O   0  0  0  0  0  0  0  0  0  0  0  0
  195.2570  165.8760   16.2000 O   0  5  0  0  0  0  0  0  0  0  0  0
  191.2080  169.9850   16.7830 N   0  0  0  0  0  0  0  0  0  0  0  0
  194.8030  168.1080   17.1220 O   0  0  0  0  0  0  0  0  0  0  0  0
  194.3570  166.1250   18.5220 O   0  0  0  0  0  0  0  0  0  0  0  0
  190.2630  170.9750   16.6870 C   0  0  0  0  0  0  0  0  0  0  0  0
  189.2450  171.2080   17.6040 C   0  0  0  0  0  0  0  0  0  0  0  0
  189.1450  170.3470   18.7560 C   0  0  0  0  0  0  0  0  0  0  0  0
  188.2590  170.4220   19.6810 N   0  0  0  0  0  0  0  0  0  0  0  0
  188.4930  172.2790   17.2310 N   0  0  0  0  0  0  0  0  0  0  0  0
  189.0720  172.6820   16.0920 C   0  0  0  0  0  0  0  0  0  0  0  0
  190.1540  171.9380   15.7510 N   0  0  0  0  0  0  0  0  0  0  0  0
  190.0900  168.6860   19.5800 H   0  0  0  0  0  0  0  0  0  0  0  0
  191.9490  169.8720   16.0910 H   0  0  0  0  0  0  0  0  0  0  0  0
  187.6830  172.6800   17.7050 H   0  0  0  0  0  0  0  0  0  0  0  0
  192.1730  174.5590   12.6910 H   0  0  0  0  0  0  0  0  0  0  0  0
  193.2260  175.5380   14.5450 H   0  0  0  0  0  0  0  0  0  0  0  0
  188.3600  169.8610   20.5270 H   0  0  0  0  0  0  0  0  0  0  0  0
  187.4120  170.9910   19.6580 H   0  0  0  0  0  0  0  0  0  0  0  0
  1 13  1  0  0  0  0
  1 16  2  0  0  0  0
  1 19  1  0  0  0  0
  2 14  1  0  0  0  0
  2 17  1  0  0  0  0
  2 20  2  0  0  0  0
  3  4  1  0  0  0  0
  1  4  1  0  0  0  0
  3  5  1  0  0  0  0
  5  6  1  0  0  0  0
  5  7  1  0  0  0  0
  6 11  1  0  0  0  0
  7  8  1  0  0  0  0
  7  9  1  0  0  0  0
  8 32  1  0  0  0  0
  9 10  1  0  0  0  0
  9 11  1  0  0  0  0
 10 31  1  0  0  0  0
 11 27  1  0  0  0  0
 12 23  4  0  0  0  0
 12 28  1  0  0  0  0
 12 15  4  0  0  0  0
 15 18  4  0  0  0  0
 18 29  1  0  0  0  0
  2 19  1  0  0  0  0
 18 21  4  0  0  0  0
 21 22  4  0  0  0  0
 22 23  4  0  0  0  0
 22 25  4  0  0  0  0
 23 24  1  0  0  0  0
 24 33  1  0  0  0  0
 24 34  1  0  0  0  0
 25 26  4  0  0  0  0
 25 30  1  0  0  0  0
 21 27  4  0  0  0  0
 26 27  4  0  0  0  0
M  END
$$$$
