Run_1_Smina
  PyMOL2.5          3D                             0

 35 37  0  0  0  0  0  0  0  0999 V2000
  193.6970  175.7510   12.5200 P   0  0  0  0  0  0  0  0  0  0  0  0
  194.1830  178.5350   13.2390 P   0  0  0  0  0  0  0  0  0  0  0  0
  191.9340  174.6050   14.1370 C   0  0  0  0  0  0  0  0  0  0  0  0
  192.3060  175.0510   12.7890 O   0  0  0  0  0  0  0  0  0  0  0  0
  192.1980  173.1210   14.5280 C   0  0  0  0  0  0  0  0  0  0  0  0
  191.9590  172.9150   15.9340 O   0  0  0  0  0  0  0  0  0  0  0  0
  191.3400  172.0110   13.8710 C   0  0  0  0  0  0  0  0  0  0  0  0
  191.8650  171.7500   12.5740 O   0  0  0  0  0  0  0  0  0  0  0  0
  191.4930  170.8680   14.8730 C   0  0  0  0  0  0  0  0  0  0  0  0
  192.7260  170.1320   14.6850 O   0  0  0  0  0  0  0  0  0  0  0  0
  191.5200  171.5790   16.2250 C   0  0  0  0  0  0  0  0  0  0  0  0
  188.0000  169.4570   19.4150 N   0  0  0  0  0  0  0  0  0  0  0  0
  193.5600  176.2190   11.1070 O   0  5  0  0  0  0  0  0  0  0  0  0
  195.2890  178.5540   12.2830 O   0  0  0  0  0  0  0  0  0  0  0  0
  189.2400  168.9730   19.0200 C   0  0  0  0  0  0  0  0  0  0  0  0
  194.8540  174.8510   12.7740 O   0  0  0  0  0  0  0  0  0  0  0  0
  194.4980  179.1080   14.5530 O   0  5  0  0  0  0  0  0  0  0  0  0
  190.0400  169.6260   18.1920 N   0  0  0  0  0  0  0  0  0  0  0  0
  193.8500  177.0100   13.4490 O   0  0  0  0  0  0  0  0  0  0  0  0
  192.9240  179.1370   12.6070 O   0  0  0  0  0  0  0  0  0  0  0  0
  189.5530  170.8160   17.7140 C   0  0  0  0  0  0  0  0  0  0  0  0
  188.3290  171.3800   18.0540 C   0  0  0  0  0  0  0  0  0  0  0  0
  187.4760  170.6720   18.9750 C   0  0  0  0  0  0  0  0  0  0  0  0
  186.3180  171.0500   19.3760 N   0  0  0  0  0  0  0  0  0  0  0  0
  188.1570  172.5760   17.4270 N   0  0  0  0  0  0  0  0  0  0  0  0
  189.2850  172.7190   16.7190 C   0  0  0  0  0  0  0  0  0  0  0  0
  190.1570  171.6940   16.8890 N   0  0  0  0  0  0  0  0  0  0  0  0
  187.4440  168.8960   20.0590 H   0  0  0  0  0  0  0  0  0  0  0  0
  190.9570  169.2680   17.9260 H   0  0  0  0  0  0  0  0  0  0  0  0
  187.3600  173.2110   17.4840 H   0  0  0  0  0  0  0  0  0  0  0  0
  191.6520  172.4800   11.9890 H   0  0  0  0  0  0  0  0  0  0  0  0
  192.7860  169.8350   13.7740 H   0  0  0  0  0  0  0  0  0  0  0  0
  194.9390  178.5930   11.3890 H   0  0  0  0  0  0  0  0  0  0  0  0
  185.7920  170.4730   20.0170 H   0  0  0  0  0  0  0  0  0  0  0  0
  185.9310  171.9250   19.0500 H   0  0  0  0  0  0  0  0  0  0  0  0
  1 13  2  0  0  0  0
  1 16  2  0  0  0  0
  1 19  1  0  0  0  0
  2 14  1  0  0  0  0
  2 17  1  0  0  0  0
  2 20  2  0  0  0  0
  3  4  1  0  0  0  0
  1  4  1  0  0  0  0
  3  5  1  0  0  0  0
  5  6  1  0  0  0  0
  5  7  1  0  0  0  0
  6 11  1  0  0  0  0
  7  8  1  0  0  0  0
  7  9  1  0  0  0  0
  8 31  1  0  0  0  0
  9 10  1  0  0  0  0
  9 11  1  0  0  0  0
 10 32  1  0  0  0  0
 11 27  1  0  0  0  0
 12 23  4  0  0  0  0
 12 28  1  0  0  0  0
 14 33  1  0  0  0  0
 12 15  4  0  0  0  0
 15 18  4  0  0  0  0
 18 29  1  0  0  0  0
  2 19  1  0  0  0  0
 18 21  4  0  0  0  0
 21 22  4  0  0  0  0
 22 23  4  0  0  0  0
 22 25  4  0  0  0  0
 23 24  1  0  0  0  0
 24 34  1  0  0  0  0
 24 35  1  0  0  0  0
 25 26  4  0  0  0  0
 25 30  1  0  0  0  0
 21 27  4  0  0  0  0
 26 27  4  0  0  0  0
M  END
>  <pdb_header>


$$$$
