obj01
  PyMOL2.5          3D                             0

 27 29  0  0  0  0  0  0  0  0999 V2000
  191.7480  174.0630   13.5450 P   0  0  0  0  0  0  0  0  0  0  0  0
  193.7880  175.8240   12.4320 P   0  0  0  0  0  0  0  0  0  0  0  0
  193.7680  172.9650   14.8690 C   0  0  0  0  0  0  0  0  0  0  0  0
  192.6420  173.9060   14.8390 O   0  0  0  0  0  0  0  0  0  0  0  0
  193.5940  171.6230   15.6400 C   0  0  0  0  0  0  0  0  0  0  0  0
  192.9230  171.8420   16.8970 O   0  0  0  0  0  0  0  0  0  0  0  0
  192.7510  170.4940   14.9970 C   0  0  0  0  0  0  0  0  0  0  0  0
  193.5610  169.8240   14.0380 O   0  0  0  0  0  0  0  0  0  0  0  0
  192.3690  169.6590   16.2180 C   0  0  0  0  0  0  0  0  0  0  0  0
  193.4230  168.7490   16.6150 O   0  0  0  0  0  0  0  0  0  0  0  0
  192.1520  170.7040   17.3120 C   0  0  0  0  0  0  0  0  0  0  0  0
  187.4740  169.9350   19.4540 N   0  0  0  0  0  0  0  0  0  0  0  0
  190.6110  174.9010   14.0320 O   0  5  0  0  0  0  0  0  0  0  0  0
  193.8840  176.3520   13.7920 O   0  0  0  0  0  0  0  0  0  0  0  0
  188.6420  169.1980   19.5950 C   0  0  0  0  0  0  0  0  0  0  0  0
  191.3570  172.7550   12.9540 O   0  0  0  0  0  0  0  0  0  0  0  0
  193.5660  176.8370   11.3940 O   0  5  0  0  0  0  0  0  0  0  0  0
  189.7730  169.5120   18.9820 N   0  0  0  0  0  0  0  0  0  0  0  0
  192.5320  174.8740   12.4500 O   0  0  0  0  0  0  0  0  0  0  0  0
  194.9790  174.9080   12.1320 O   0  0  0  0  0  0  0  0  0  0  0  0
  189.7160  170.6100   18.1620 C   0  0  0  0  0  0  0  0  0  0  0  0
  188.5960  171.4080   17.9610 C   0  0  0  0  0  0  0  0  0  0  0  0
  187.3770  171.0710   18.6520 C   0  0  0  0  0  0  0  0  0  0  0  0
  186.2600  171.6960   18.5630 N   0  0  0  0  0  0  0  0  0  0  0  0
  188.8770  172.4310   17.1080 N   0  0  0  0  0  0  0  0  0  0  0  0
  190.1690  172.2370   16.8080 C   0  0  0  0  0  0  0  0  0  0  0  0
  190.7110  171.1690   17.4450 N   0  0  0  0  0  0  0  0  0  0  0  0
  1  4  1  0  0  0  0
  1 13  1  0  0  0  0
  1 16  2  0  0  0  0
  1 19  1  0  0  0  0
  2 14  1  0  0  0  0
  2 17  1  0  0  0  0
  2 19  1  0  0  0  0
  2 20  2  0  0  0  0
  3  4  1  0  0  0  0
  3  5  1  0  0  0  0
  5  6  1  0  0  0  0
  5  7  1  0  0  0  0
  6 11  1  0  0  0  0
  7  8  1  0  0  0  0
  7  9  1  0  0  0  0
  9 10  1  0  0  0  0
  9 11  1  0  0  0  0
 11 27  1  0  0  0  0
 12 15  4  0  0  0  0
 12 23  4  0  0  0  0
 15 18  4  0  0  0  0
 18 21  4  0  0  0  0
 21 22  4  0  0  0  0
 21 27  4  0  0  0  0
 22 23  4  0  0  0  0
 22 25  4  0  0  0  0
 23 24  1  0  0  0  0
 25 26  4  0  0  0  0
 26 27  4  0  0  0  0
M  END
>  <pdb_header>
CRYST1   59.630   81.720   83.050  90.00  90.00  90.00 P 21 21 21    4


$$$$
